
*****
***** Welcome to the Xyce(TM) Parallel Electronic Simulator
*****
***** This is version Xyce Release 6.12-opensource
***** Date: Mon Feb 15 19:03:30 EST 2021


***** Executing netlist RC_steady.cir

***** Reading and parsing netlist...
***** Setting up topology...

***** Device Count Summary ...
       I level 1 (Independent Current Source)    75
       R level 1 (Resistor)                   38416
       V level 1 (Independent Voltage Source)     1
       --------------------------------------------
       Total Devices                          38492
***** Setting up matrix structure...
***** Number of Unknowns = 13329
***** Initializing...

------------------------------------------------------------
Operating point information:
Number of Resistor models: 1
          name R level 1 (Resistor)
          type                
         level               1
           TNOM             27
           DEFW          1e-05
         NARROW              0
              R              1
            TC1              0
            TCE              0
            TC2              0

            RSH              0

Number of Resistor instances: 4815
          name    R_45_10_10_1   R_45_10_10_2   R_45_10_10_3   R_45_10_11_1   R_45_10_11_2   R_45_10_11_3   R_45_10_12_1
   R_45_10_12_2   R_45_10_12_3   R_45_10_13_1   R_45_10_13_2   R_45_10_13_3   R_45_10_14_1   R_45_10_14_2   R_45_10_14_3
   R_45_10_15_2   R_45_10_15_3    R_45_10_3_3    R_45_10_4_1    R_45_10_4_2    R_45_10_4_3    R_45_10_5_1    R_45_10_5_2
    R_45_10_5_3    R_45_10_6_1    R_45_10_6_2    R_45_10_6_3    R_45_10_7_1    R_45_10_7_2    R_45_10_7_3    R_45_10_8_1
    R_45_10_8_2    R_45_10_8_3    R_45_10_9_1    R_45_10_9_2    R_45_10_9_3    R_45_11_0_1    R_45_11_0_2    R_45_11_0_3
   R_45_11_10_1   R_45_11_10_2   R_45_11_10_3   R_45_11_11_1   R_45_11_11_2   R_45_11_11_3   R_45_11_12_1   R_45_11_12_2
   R_45_11_12_3   R_45_11_13_1   R_45_11_13_2   R_45_11_13_3   R_45_11_14_1   R_45_11_14_2   R_45_11_14_3   R_45_11_15_2
   R_45_11_15_3    R_45_11_1_1    R_45_11_1_2    R_45_11_1_3    R_45_11_2_1    R_45_11_2_2    R_45_11_2_3    R_45_11_3_1
    R_45_11_3_2    R_45_11_3_3    R_45_11_4_1    R_45_11_4_2    R_45_11_4_3    R_45_11_5_1    R_45_11_5_2    R_45_11_5_3
    R_45_11_6_1    R_45_11_6_2    R_45_11_6_3    R_45_11_7_1    R_45_11_7_2    R_45_11_7_3    R_45_11_8_1    R_45_11_8_2
    R_45_11_8_3    R_45_11_9_1    R_45_11_9_2    R_45_11_9_3    R_45_12_0_1    R_45_12_0_2    R_45_12_0_3   R_45_12_10_1
   R_45_12_10_2   R_45_12_10_3   R_45_12_11_1   R_45_12_11_2   R_45_12_11_3   R_45_12_12_1   R_45_12_12_2   R_45_12_12_3
   R_45_12_13_1   R_45_12_13_2   R_45_12_13_3   R_45_12_14_1   R_45_12_14_2   R_45_12_14_3   R_45_12_15_2   R_45_12_15_3
    R_45_12_1_1    R_45_12_1_2    R_45_12_1_3    R_45_12_2_1    R_45_12_2_2    R_45_12_2_3    R_45_12_3_1    R_45_12_3_2
    R_45_12_3_3    R_45_12_4_1    R_45_12_4_2    R_45_12_4_3    R_45_12_5_1    R_45_12_5_2    R_45_12_5_3    R_45_12_6_1
    R_45_12_6_2    R_45_12_6_3    R_45_12_7_1    R_45_12_7_2    R_45_12_7_3    R_45_12_8_1    R_45_12_8_2    R_45_12_8_3
    R_45_12_9_1    R_45_12_9_2    R_45_12_9_3    R_45_13_0_1    R_45_13_0_2    R_45_13_0_3   R_45_13_10_1   R_45_13_10_2
   R_45_13_10_3   R_45_13_11_1   R_45_13_11_2   R_45_13_11_3   R_45_13_12_1   R_45_13_12_2   R_45_13_12_3   R_45_13_13_1
   R_45_13_13_2   R_45_13_13_3   R_45_13_14_1   R_45_13_14_2   R_45_13_14_3   R_45_13_15_2   R_45_13_15_3    R_45_13_1_1
    R_45_13_1_2    R_45_13_1_3    R_45_13_2_1    R_45_13_2_2    R_45_13_2_3    R_45_13_3_1    R_45_13_3_2    R_45_13_3_3
    R_45_13_4_1    R_45_13_4_2    R_45_13_4_3    R_45_13_5_1    R_45_13_5_2    R_45_13_5_3    R_45_13_6_1    R_45_13_6_2
    R_45_13_6_3    R_45_13_7_1    R_45_13_7_2    R_45_13_7_3    R_45_13_8_1    R_45_13_8_2    R_45_13_8_3    R_45_13_9_1
    R_45_13_9_2    R_45_13_9_3    R_45_14_0_1    R_45_14_0_2    R_45_14_0_3   R_45_14_10_1   R_45_14_10_2   R_45_14_10_3
   R_45_14_11_1   R_45_14_11_2   R_45_14_11_3   R_45_14_12_1   R_45_14_12_2   R_45_14_12_3   R_45_14_13_1   R_45_14_13_2
   R_45_14_13_3   R_45_14_14_1   R_45_14_14_2   R_45_14_14_3   R_45_14_15_2   R_45_14_15_3    R_45_14_1_1    R_45_14_1_2
    R_45_14_1_3    R_45_14_2_1    R_45_14_2_2    R_45_14_2_3    R_45_14_3_1    R_45_14_3_2    R_45_14_3_3    R_45_14_4_1
    R_45_14_4_2    R_45_14_4_3    R_45_14_5_1    R_45_14_5_2    R_45_14_5_3    R_45_14_6_1    R_45_14_6_2    R_45_14_6_3
    R_45_14_7_1    R_45_14_7_2    R_45_14_7_3    R_45_14_8_1    R_45_14_8_2    R_45_14_8_3    R_45_14_9_1    R_45_14_9_2
    R_45_14_9_3    R_45_15_0_1    R_45_15_0_3   R_45_15_10_1   R_45_15_10_3   R_45_15_11_1   R_45_15_11_3   R_45_15_12_1
   R_45_15_12_3   R_45_15_13_1   R_45_15_13_3   R_45_15_14_1   R_45_15_14_3   R_45_15_15_3    R_45_15_1_1    R_45_15_1_3
    R_45_15_2_1    R_45_15_2_3    R_45_15_3_1    R_45_15_3_3    R_45_15_4_1    R_45_15_4_3    R_45_15_5_1    R_45_15_5_3
    R_45_15_6_1    R_45_15_6_3    R_45_15_7_1    R_45_15_7_3    R_45_15_8_1    R_45_15_8_3    R_45_15_9_1    R_45_15_9_3
     R_46_0_0_1     R_46_0_0_2     R_46_0_0_3    R_46_0_10_1    R_46_0_10_2    R_46_0_10_3    R_46_0_11_1    R_46_0_11_2
    R_46_0_11_3    R_46_0_12_1    R_46_0_12_2    R_46_0_12_3    R_46_0_13_1    R_46_0_13_2    R_46_0_13_3    R_46_0_14_1
    R_46_0_14_2    R_46_0_14_3    R_46_0_15_2    R_46_0_15_3     R_46_0_1_1     R_46_0_1_2     R_46_0_1_3     R_46_0_2_1
     R_46_0_2_2     R_46_0_2_3     R_46_0_3_1     R_46_0_3_2     R_46_0_3_3     R_46_0_4_1     R_46_0_4_2     R_46_0_4_3
     R_46_0_5_1     R_46_0_5_2     R_46_0_5_3     R_46_0_6_1     R_46_0_6_2     R_46_0_6_3     R_46_0_7_1     R_46_0_7_2
     R_46_0_7_3     R_46_0_8_1     R_46_0_8_2     R_46_0_8_3     R_46_0_9_1     R_46_0_9_2     R_46_0_9_3    R_46_10_0_1
    R_46_10_0_2    R_46_10_0_3   R_46_10_10_1   R_46_10_10_2   R_46_10_10_3   R_46_10_11_1   R_46_10_11_2   R_46_10_11_3
   R_46_10_12_1   R_46_10_12_2   R_46_10_12_3   R_46_10_13_1   R_46_10_13_2   R_46_10_13_3   R_46_10_14_1   R_46_10_14_2
   R_46_10_14_3   R_46_10_15_2   R_46_10_15_3    R_46_10_1_1    R_46_10_1_2    R_46_10_1_3    R_46_10_2_1    R_46_10_2_2
    R_46_10_2_3    R_46_10_3_1    R_46_10_3_2    R_46_10_3_3    R_46_10_4_1    R_46_10_4_2    R_46_10_4_3    R_46_10_5_1
    R_46_10_5_2    R_46_10_5_3    R_46_10_6_1    R_46_10_6_2    R_46_10_6_3    R_46_10_7_1    R_46_10_7_2    R_46_10_7_3
    R_46_10_8_1    R_46_10_8_2    R_46_10_8_3    R_46_10_9_1    R_46_10_9_2    R_46_10_9_3    R_46_11_0_1    R_46_11_0_2
    R_46_11_0_3   R_46_11_10_1   R_46_11_10_2   R_46_11_10_3   R_46_11_11_1   R_46_11_11_2   R_46_11_11_3   R_46_11_12_1
   R_46_11_12_2   R_46_11_12_3   R_46_11_13_1   R_46_11_13_2   R_46_11_13_3   R_46_11_14_1   R_46_11_14_2   R_46_11_14_3
   R_46_11_15_2   R_46_11_15_3    R_46_11_1_1    R_46_11_1_2    R_46_11_1_3    R_46_11_2_1    R_46_11_2_2    R_46_11_2_3
    R_46_11_3_1    R_46_11_3_2    R_46_11_3_3    R_46_11_4_1    R_46_11_4_2    R_46_11_4_3    R_46_11_5_1    R_46_11_5_2
    R_46_11_5_3    R_46_11_6_1    R_46_11_6_2    R_46_11_6_3    R_46_11_7_1    R_46_11_7_2    R_46_11_7_3    R_46_11_8_1
    R_46_11_8_2    R_46_11_8_3    R_46_11_9_1    R_46_11_9_2    R_46_11_9_3    R_46_12_0_1    R_46_12_0_2    R_46_12_0_3
   R_46_12_10_1   R_46_12_10_2   R_46_12_10_3   R_46_12_11_1   R_46_12_11_2   R_46_12_11_3   R_46_12_12_1   R_46_12_12_2
   R_46_12_12_3   R_46_12_13_1   R_46_12_13_2   R_46_12_13_3   R_46_12_14_1   R_46_12_14_2   R_46_12_14_3   R_46_12_15_2
   R_46_12_15_3    R_46_12_1_1    R_46_12_1_2    R_46_12_1_3    R_46_12_2_1    R_46_12_2_2    R_46_12_2_3    R_46_12_3_1
    R_46_12_3_2    R_46_12_3_3    R_46_12_4_1    R_46_12_4_2    R_46_12_4_3    R_46_12_5_1    R_46_12_5_2    R_46_12_5_3
    R_46_12_6_1    R_46_12_6_2    R_46_12_6_3    R_46_12_7_1    R_46_12_7_2    R_46_12_7_3    R_46_12_8_1    R_46_12_8_2
    R_46_12_8_3    R_46_12_9_1    R_46_12_9_2    R_46_12_9_3    R_46_13_0_1    R_46_13_0_2    R_46_13_0_3   R_46_13_10_1
   R_46_13_10_2   R_46_13_10_3   R_46_13_11_1   R_46_13_11_2   R_46_13_11_3   R_46_13_12_1   R_46_13_12_2   R_46_13_12_3
   R_46_13_13_1   R_46_13_13_2   R_46_13_13_3   R_46_13_14_1   R_46_13_14_2   R_46_13_14_3   R_46_13_15_2   R_46_13_15_3
    R_46_13_1_1    R_46_13_1_2    R_46_13_1_3    R_46_13_2_1    R_46_13_2_2    R_46_13_2_3    R_46_13_3_1    R_46_13_3_2
    R_46_13_3_3    R_46_13_4_1    R_46_13_4_2    R_46_13_4_3    R_46_13_5_1    R_46_13_5_2    R_46_13_5_3    R_46_13_6_1
    R_46_13_6_2    R_46_13_6_3    R_46_13_7_1    R_46_13_7_2    R_46_13_7_3    R_46_13_8_1    R_46_13_8_2    R_46_13_8_3
    R_46_13_9_1    R_46_13_9_2    R_46_13_9_3    R_46_14_0_1    R_46_14_0_2    R_46_14_0_3   R_46_14_10_1   R_46_14_10_2
   R_46_14_10_3   R_46_14_11_1   R_46_14_11_2   R_46_14_11_3   R_46_14_12_1   R_46_14_12_2   R_46_14_12_3   R_46_14_13_1
   R_46_14_13_2   R_46_14_13_3   R_46_14_14_1   R_46_14_14_2   R_46_14_14_3   R_46_14_15_2   R_46_14_15_3    R_46_14_1_1
    R_46_14_1_2    R_46_14_1_3    R_46_14_2_1    R_46_14_2_2    R_46_14_2_3    R_46_14_3_1    R_46_14_3_2    R_46_14_3_3
    R_46_14_4_1    R_46_14_4_2    R_46_14_4_3    R_46_14_5_1    R_46_14_5_2    R_46_14_5_3    R_46_14_6_1    R_46_14_6_2
    R_46_14_6_3    R_46_14_7_1    R_46_14_7_2    R_46_14_7_3    R_46_14_8_1    R_46_14_8_2    R_46_14_8_3    R_46_14_9_1
    R_46_14_9_2    R_46_14_9_3    R_46_15_0_1    R_46_15_0_3   R_46_15_10_1   R_46_15_10_3   R_46_15_11_1   R_46_15_11_3
   R_46_15_12_1   R_46_15_12_3   R_46_15_13_1   R_46_15_13_3   R_46_15_14_1   R_46_15_14_3   R_46_15_15_3    R_46_15_1_1
    R_46_15_1_3    R_46_15_2_1    R_46_15_2_3    R_46_15_3_1    R_46_15_3_3    R_46_15_4_1    R_46_15_4_3    R_46_15_5_1
    R_46_15_5_3    R_46_15_6_1    R_46_15_6_3    R_46_15_7_1    R_46_15_7_3    R_46_15_8_1    R_46_15_8_3    R_46_15_9_1
    R_46_15_9_3     R_46_1_0_1     R_46_1_0_2     R_46_1_0_3    R_46_1_10_1    R_46_1_10_2    R_46_1_10_3    R_46_1_11_1
    R_46_1_11_2    R_46_1_11_3    R_46_1_12_1    R_46_1_12_2    R_46_1_12_3    R_46_1_13_1    R_46_1_13_2    R_46_1_13_3
    R_46_1_14_1    R_46_1_14_2    R_46_1_14_3    R_46_1_15_2    R_46_1_15_3     R_46_1_1_1     R_46_1_1_2     R_46_1_1_3
     R_46_1_2_1     R_46_1_2_2     R_46_1_2_3     R_46_1_3_1     R_46_1_3_2     R_46_1_3_3     R_46_1_4_1     R_46_1_4_2
     R_46_1_4_3     R_46_1_5_1     R_46_1_5_2     R_46_1_5_3     R_46_1_6_1     R_46_1_6_2     R_46_1_6_3     R_46_1_7_1
     R_46_1_7_2     R_46_1_7_3     R_46_1_8_1     R_46_1_8_2     R_46_1_8_3     R_46_1_9_1     R_46_1_9_2     R_46_1_9_3
     R_46_2_0_1     R_46_2_0_2     R_46_2_0_3    R_46_2_10_1    R_46_2_10_2    R_46_2_10_3    R_46_2_11_1    R_46_2_11_2
    R_46_2_11_3    R_46_2_12_1    R_46_2_12_2    R_46_2_12_3    R_46_2_13_1    R_46_2_13_2    R_46_2_13_3    R_46_2_14_1
    R_46_2_14_2    R_46_2_14_3    R_46_2_15_2    R_46_2_15_3     R_46_2_1_1     R_46_2_1_2     R_46_2_1_3     R_46_2_2_1
     R_46_2_2_2     R_46_2_2_3     R_46_2_3_1     R_46_2_3_2     R_46_2_3_3     R_46_2_4_1     R_46_2_4_2     R_46_2_4_3
     R_46_2_5_1     R_46_2_5_2     R_46_2_5_3     R_46_2_6_1     R_46_2_6_2     R_46_2_6_3     R_46_2_7_1     R_46_2_7_2
     R_46_2_7_3     R_46_2_8_1     R_46_2_8_2     R_46_2_8_3     R_46_2_9_1     R_46_2_9_2     R_46_2_9_3     R_46_3_0_1
     R_46_3_0_2     R_46_3_0_3    R_46_3_10_1    R_46_3_10_2    R_46_3_10_3    R_46_3_11_1    R_46_3_11_2    R_46_3_11_3
    R_46_3_12_1    R_46_3_12_2    R_46_3_12_3    R_46_3_13_1    R_46_3_13_2    R_46_3_13_3    R_46_3_14_1    R_46_3_14_2
    R_46_3_14_3    R_46_3_15_2    R_46_3_15_3     R_46_3_1_1     R_46_3_1_2     R_46_3_1_3     R_46_3_2_1     R_46_3_2_2
     R_46_3_2_3     R_46_3_3_1     R_46_3_3_2     R_46_3_3_3     R_46_3_4_1     R_46_3_4_2     R_46_3_4_3     R_46_3_5_1
     R_46_3_5_2     R_46_3_5_3     R_46_3_6_1     R_46_3_6_2     R_46_3_6_3     R_46_3_7_1     R_46_3_7_2     R_46_3_7_3
     R_46_3_8_1     R_46_3_8_2     R_46_3_8_3     R_46_3_9_1     R_46_3_9_2     R_46_3_9_3     R_46_4_0_1     R_46_4_0_2
     R_46_4_0_3    R_46_4_10_1    R_46_4_10_2    R_46_4_10_3    R_46_4_11_1    R_46_4_11_2    R_46_4_11_3    R_46_4_12_1
    R_46_4_12_2    R_46_4_12_3    R_46_4_13_1    R_46_4_13_2    R_46_4_13_3    R_46_4_14_1    R_46_4_14_2    R_46_4_14_3
    R_46_4_15_2    R_46_4_15_3     R_46_4_1_1     R_46_4_1_2     R_46_4_1_3     R_46_4_2_1     R_46_4_2_2     R_46_4_2_3
     R_46_4_3_1     R_46_4_3_2     R_46_4_3_3     R_46_4_4_1     R_46_4_4_2     R_46_4_4_3     R_46_4_5_1     R_46_4_5_2
     R_46_4_5_3     R_46_4_6_1     R_46_4_6_2     R_46_4_6_3     R_46_4_7_1     R_46_4_7_2     R_46_4_7_3     R_46_4_8_1
     R_46_4_8_2     R_46_4_8_3     R_46_4_9_1     R_46_4_9_2     R_46_4_9_3     R_46_5_0_1     R_46_5_0_2     R_46_5_0_3
    R_46_5_10_1    R_46_5_10_2    R_46_5_10_3    R_46_5_11_1    R_46_5_11_2    R_46_5_11_3    R_46_5_12_1    R_46_5_12_2
    R_46_5_12_3    R_46_5_13_1    R_46_5_13_2    R_46_5_13_3    R_46_5_14_1    R_46_5_14_2    R_46_5_14_3    R_46_5_15_2
    R_46_5_15_3     R_46_5_1_1     R_46_5_1_2     R_46_5_1_3     R_46_5_2_1     R_46_5_2_2     R_46_5_2_3     R_46_5_3_1
     R_46_5_3_2     R_46_5_3_3     R_46_5_4_1     R_46_5_4_2     R_46_5_4_3     R_46_5_5_1     R_46_5_5_2     R_46_5_5_3
     R_46_5_6_1     R_46_5_6_2     R_46_5_6_3     R_46_5_7_1     R_46_5_7_2     R_46_5_7_3     R_46_5_8_1     R_46_5_8_2
     R_46_5_8_3     R_46_5_9_1     R_46_5_9_2     R_46_5_9_3     R_46_6_0_1     R_46_6_0_2     R_46_6_0_3    R_46_6_10_1
    R_46_6_10_2    R_46_6_10_3    R_46_6_11_1    R_46_6_11_2    R_46_6_11_3    R_46_6_12_1    R_46_6_12_2    R_46_6_12_3
    R_46_6_13_1    R_46_6_13_2    R_46_6_13_3    R_46_6_14_1    R_46_6_14_2    R_46_6_14_3    R_46_6_15_2    R_46_6_15_3
     R_46_6_1_1     R_46_6_1_2     R_46_6_1_3     R_46_6_2_1     R_46_6_2_2     R_46_6_2_3     R_46_6_3_1     R_46_6_3_2
     R_46_6_3_3     R_46_6_4_1     R_46_6_4_2     R_46_6_4_3     R_46_6_5_1     R_46_6_5_2     R_46_6_5_3     R_46_6_6_1
     R_46_6_6_2     R_46_6_6_3     R_46_6_7_1     R_46_6_7_2     R_46_6_7_3     R_46_6_8_1     R_46_6_8_2     R_46_6_8_3
     R_46_6_9_1     R_46_6_9_2     R_46_6_9_3     R_46_7_0_1     R_46_7_0_2     R_46_7_0_3    R_46_7_10_1    R_46_7_10_2
    R_46_7_10_3    R_46_7_11_1    R_46_7_11_2    R_46_7_11_3    R_46_7_12_1    R_46_7_12_2    R_46_7_12_3    R_46_7_13_1
    R_46_7_13_2    R_46_7_13_3    R_46_7_14_1    R_46_7_14_2    R_46_7_14_3    R_46_7_15_2    R_46_7_15_3     R_46_7_1_1
     R_46_7_1_2     R_46_7_1_3     R_46_7_2_1     R_46_7_2_2     R_46_7_2_3     R_46_7_3_1     R_46_7_3_2     R_46_7_3_3
     R_46_7_4_1     R_46_7_4_2     R_46_7_4_3     R_46_7_5_1     R_46_7_5_2     R_46_7_5_3     R_46_7_6_1     R_46_7_6_2
     R_46_7_6_3     R_46_7_7_1     R_46_7_7_2     R_46_7_7_3     R_46_7_8_1     R_46_7_8_2     R_46_7_8_3     R_46_7_9_1
     R_46_7_9_2     R_46_7_9_3     R_46_8_0_1     R_46_8_0_2     R_46_8_0_3    R_46_8_10_1    R_46_8_10_2    R_46_8_10_3
    R_46_8_11_1    R_46_8_11_2    R_46_8_11_3    R_46_8_12_1    R_46_8_12_2    R_46_8_12_3    R_46_8_13_1    R_46_8_13_2
    R_46_8_13_3    R_46_8_14_1    R_46_8_14_2    R_46_8_14_3    R_46_8_15_2    R_46_8_15_3     R_46_8_1_1     R_46_8_1_2
     R_46_8_1_3     R_46_8_2_1     R_46_8_2_2     R_46_8_2_3     R_46_8_3_1     R_46_8_3_2     R_46_8_3_3     R_46_8_4_1
     R_46_8_4_2     R_46_8_4_3     R_46_8_5_1     R_46_8_5_2     R_46_8_5_3     R_46_8_6_1     R_46_8_6_2     R_46_8_6_3
     R_46_8_7_1     R_46_8_7_2     R_46_8_7_3     R_46_8_8_1     R_46_8_8_2     R_46_8_8_3     R_46_8_9_1     R_46_8_9_2
     R_46_8_9_3     R_46_9_0_1     R_46_9_0_2     R_46_9_0_3    R_46_9_10_1    R_46_9_10_2    R_46_9_10_3    R_46_9_11_1
    R_46_9_11_2    R_46_9_11_3    R_46_9_12_1    R_46_9_12_2    R_46_9_12_3    R_46_9_13_1    R_46_9_13_2    R_46_9_13_3
    R_46_9_14_1    R_46_9_14_2    R_46_9_14_3    R_46_9_15_2    R_46_9_15_3     R_46_9_1_1     R_46_9_1_2     R_46_9_1_3
     R_46_9_2_1     R_46_9_2_2     R_46_9_2_3     R_46_9_3_1     R_46_9_3_2     R_46_9_3_3     R_46_9_4_1     R_46_9_4_2
     R_46_9_4_3     R_46_9_5_1     R_46_9_5_2     R_46_9_5_3     R_46_9_6_1     R_46_9_6_2     R_46_9_6_3     R_46_9_7_1
     R_46_9_7_2     R_46_9_7_3     R_46_9_8_1     R_46_9_8_2     R_46_9_8_3     R_46_9_9_1     R_46_9_9_2     R_46_9_9_3
     R_47_0_0_1     R_47_0_0_2     R_47_0_0_3    R_47_0_10_1    R_47_0_10_2    R_47_0_10_3    R_47_0_11_1    R_47_0_11_2
    R_47_0_11_3    R_47_0_12_1    R_47_0_12_2    R_47_0_12_3    R_47_0_13_1    R_47_0_13_2    R_47_0_13_3    R_47_0_14_1
    R_47_0_14_2    R_47_0_14_3    R_47_0_15_2    R_47_0_15_3     R_47_0_1_1     R_47_0_1_2     R_47_0_1_3     R_47_0_2_1
     R_47_0_2_2     R_47_0_2_3     R_47_0_3_1     R_47_0_3_2     R_47_0_3_3     R_47_0_4_1     R_47_0_4_2     R_47_0_4_3
     R_47_0_5_1     R_47_0_5_2     R_47_0_5_3     R_47_0_6_1     R_47_0_6_2     R_47_0_6_3     R_47_0_7_1     R_47_0_7_2
     R_47_0_7_3     R_47_0_8_1     R_47_0_8_2     R_47_0_8_3     R_47_0_9_1     R_47_0_9_2     R_47_0_9_3    R_47_10_0_1
    R_47_10_0_2    R_47_10_0_3   R_47_10_10_1   R_47_10_10_2   R_47_10_10_3   R_47_10_11_1   R_47_10_11_2   R_47_10_11_3
   R_47_10_12_1   R_47_10_12_2   R_47_10_12_3   R_47_10_13_1   R_47_10_13_2   R_47_10_13_3   R_47_10_14_1   R_47_10_14_2
   R_47_10_14_3   R_47_10_15_2   R_47_10_15_3    R_47_10_1_1    R_47_10_1_2    R_47_10_1_3    R_47_10_2_1    R_47_10_2_2
    R_47_10_2_3    R_47_10_3_1    R_47_10_3_2    R_47_10_3_3    R_47_10_4_1    R_47_10_4_2    R_47_10_4_3    R_47_10_5_1
    R_47_10_5_2    R_47_10_5_3    R_47_10_6_1    R_47_10_6_2    R_47_10_6_3    R_47_10_7_1    R_47_10_7_2    R_47_10_7_3
    R_47_10_8_1    R_47_10_8_2    R_47_10_8_3    R_47_10_9_1    R_47_10_9_2    R_47_10_9_3    R_47_11_0_1    R_47_11_0_2
    R_47_11_0_3   R_47_11_10_1   R_47_11_10_2   R_47_11_10_3   R_47_11_11_1   R_47_11_11_2   R_47_11_11_3   R_47_11_12_1
   R_47_11_12_2   R_47_11_12_3   R_47_11_13_1   R_47_11_13_2   R_47_11_13_3   R_47_11_14_1   R_47_11_14_2   R_47_11_14_3
   R_47_11_15_2   R_47_11_15_3    R_47_11_1_1    R_47_11_1_2    R_47_11_1_3    R_47_11_2_1    R_47_11_2_2    R_47_11_2_3
    R_47_11_3_1    R_47_11_3_2    R_47_11_3_3    R_47_11_4_1    R_47_11_4_2    R_47_11_4_3    R_47_11_5_1    R_47_11_5_2
    R_47_11_5_3    R_47_11_6_1    R_47_11_6_2    R_47_11_6_3    R_47_11_7_1    R_47_11_7_2    R_47_11_7_3    R_47_11_8_1
    R_47_11_8_2    R_47_11_8_3    R_47_11_9_1    R_47_11_9_2    R_47_11_9_3    R_47_12_0_1    R_47_12_0_2    R_47_12_0_3
   R_47_12_10_1   R_47_12_10_2   R_47_12_10_3   R_47_12_11_1   R_47_12_11_2   R_47_12_11_3   R_47_12_12_1   R_47_12_12_2
   R_47_12_12_3   R_47_12_13_1   R_47_12_13_2   R_47_12_13_3   R_47_12_14_1   R_47_12_14_2   R_47_12_14_3   R_47_12_15_2
   R_47_12_15_3    R_47_12_1_1    R_47_12_1_2    R_47_12_1_3    R_47_12_2_1    R_47_12_2_2    R_47_12_2_3    R_47_12_3_1
    R_47_12_3_2    R_47_12_3_3    R_47_12_4_1    R_47_12_4_2    R_47_12_4_3    R_47_12_5_1    R_47_12_5_2    R_47_12_5_3
    R_47_12_6_1    R_47_12_6_2    R_47_12_6_3    R_47_12_7_1    R_47_12_7_2    R_47_12_7_3    R_47_12_8_1    R_47_12_8_2
    R_47_12_8_3    R_47_12_9_1    R_47_12_9_2    R_47_12_9_3    R_47_13_0_1    R_47_13_0_2    R_47_13_0_3   R_47_13_10_1
   R_47_13_10_2   R_47_13_10_3   R_47_13_11_1   R_47_13_11_2   R_47_13_11_3   R_47_13_12_1   R_47_13_12_2   R_47_13_12_3
   R_47_13_13_1   R_47_13_13_2   R_47_13_13_3   R_47_13_14_1   R_47_13_14_2   R_47_13_14_3   R_47_13_15_2   R_47_13_15_3
    R_47_13_1_1    R_47_13_1_2    R_47_13_1_3    R_47_13_2_1    R_47_13_2_2    R_47_13_2_3    R_47_13_3_1    R_47_13_3_2
    R_47_13_3_3    R_47_13_4_1    R_47_13_4_2    R_47_13_4_3    R_47_13_5_1    R_47_13_5_2    R_47_13_5_3    R_47_13_6_1
    R_47_13_6_2    R_47_13_6_3    R_47_13_7_1    R_47_13_7_2    R_47_13_7_3    R_47_13_8_1    R_47_13_8_2    R_47_13_8_3
    R_47_13_9_1    R_47_13_9_2    R_47_13_9_3    R_47_14_0_1    R_47_14_0_2    R_47_14_0_3   R_47_14_10_1   R_47_14_10_2
   R_47_14_10_3   R_47_14_11_1   R_47_14_11_2   R_47_14_11_3   R_47_14_12_1   R_47_14_12_2   R_47_14_12_3   R_47_14_13_1
   R_47_14_13_2   R_47_14_13_3   R_47_14_14_1   R_47_14_14_2   R_47_14_14_3   R_47_14_15_2   R_47_14_15_3    R_47_14_1_1
    R_47_14_1_2    R_47_14_1_3    R_47_14_2_1    R_47_14_2_2    R_47_14_2_3    R_47_14_3_1    R_47_14_3_2    R_47_14_3_3
    R_47_14_4_1    R_47_14_4_2    R_47_14_4_3    R_47_14_5_1    R_47_14_5_2    R_47_14_5_3    R_47_14_6_1    R_47_14_6_2
    R_47_14_6_3    R_47_14_7_1    R_47_14_7_2    R_47_14_7_3    R_47_14_8_1    R_47_14_8_2    R_47_14_8_3    R_47_14_9_1
    R_47_14_9_2    R_47_14_9_3    R_47_15_0_1    R_47_15_0_3   R_47_15_10_1   R_47_15_10_3   R_47_15_11_1   R_47_15_11_3
   R_47_15_12_1   R_47_15_12_3   R_47_15_13_1   R_47_15_13_3   R_47_15_14_1   R_47_15_14_3   R_47_15_15_3    R_47_15_1_1
    R_47_15_1_3    R_47_15_2_1    R_47_15_2_3    R_47_15_3_1    R_47_15_3_3    R_47_15_4_1    R_47_15_4_3    R_47_15_5_1
    R_47_15_5_3    R_47_15_6_1    R_47_15_6_3    R_47_15_7_1    R_47_15_7_3    R_47_15_8_1    R_47_15_8_3    R_47_15_9_1
    R_47_15_9_3     R_47_1_0_1     R_47_1_0_2     R_47_1_0_3    R_47_1_10_1    R_47_1_10_2    R_47_1_10_3    R_47_1_11_1
    R_47_1_11_2    R_47_1_11_3    R_47_1_12_1    R_47_1_12_2    R_47_1_12_3    R_47_1_13_1    R_47_1_13_2    R_47_1_13_3
    R_47_1_14_1    R_47_1_14_2    R_47_1_14_3    R_47_1_15_2    R_47_1_15_3     R_47_1_1_1     R_47_1_1_2     R_47_1_1_3
     R_47_1_2_1     R_47_1_2_2     R_47_1_2_3     R_47_1_3_1     R_47_1_3_2     R_47_1_3_3     R_47_1_4_1     R_47_1_4_2
     R_47_1_4_3     R_47_1_5_1     R_47_1_5_2     R_47_1_5_3     R_47_1_6_1     R_47_1_6_2     R_47_1_6_3     R_47_1_7_1
     R_47_1_7_2     R_47_1_7_3     R_47_1_8_1     R_47_1_8_2     R_47_1_8_3     R_47_1_9_1     R_47_1_9_2     R_47_1_9_3
     R_47_2_0_1     R_47_2_0_2     R_47_2_0_3    R_47_2_10_1    R_47_2_10_2    R_47_2_10_3    R_47_2_11_1    R_47_2_11_2
    R_47_2_11_3    R_47_2_12_1    R_47_2_12_2    R_47_2_12_3    R_47_2_13_1    R_47_2_13_2    R_47_2_13_3    R_47_2_14_1
    R_47_2_14_2    R_47_2_14_3    R_47_2_15_2    R_47_2_15_3     R_47_2_1_1     R_47_2_1_2     R_47_2_1_3     R_47_2_2_1
     R_47_2_2_2     R_47_2_2_3     R_47_2_3_1     R_47_2_3_2     R_47_2_3_3     R_47_2_4_1     R_47_2_4_2     R_47_2_4_3
     R_47_2_5_1     R_47_2_5_2     R_47_2_5_3     R_47_2_6_1     R_47_2_6_2     R_47_2_6_3     R_47_2_7_1     R_47_2_7_2
     R_47_2_7_3     R_47_2_8_1     R_47_2_8_2     R_47_2_8_3     R_47_2_9_1     R_47_2_9_2     R_47_2_9_3     R_47_3_0_1
     R_47_3_0_2     R_47_3_0_3    R_47_3_10_1    R_47_3_10_2    R_47_3_10_3    R_47_3_11_1    R_47_3_11_2    R_47_3_11_3
    R_47_3_12_1    R_47_3_12_2    R_47_3_12_3    R_47_3_13_1    R_47_3_13_2    R_47_3_13_3    R_47_3_14_1    R_47_3_14_2
    R_47_3_14_3    R_47_3_15_2    R_47_3_15_3     R_47_3_1_1     R_47_3_1_2     R_47_3_1_3     R_47_3_2_1     R_47_3_2_2
     R_47_3_2_3     R_47_3_3_1     R_47_3_3_2     R_47_3_3_3     R_47_3_4_1     R_47_3_4_2     R_47_3_4_3     R_47_3_5_1
     R_47_3_5_2     R_47_3_5_3     R_47_3_6_1     R_47_3_6_2     R_47_3_6_3     R_47_3_7_1     R_47_3_7_2     R_47_3_7_3
     R_47_3_8_1     R_47_3_8_2     R_47_3_8_3     R_47_3_9_1     R_47_3_9_2     R_47_3_9_3     R_47_4_0_1     R_47_4_0_2
     R_47_4_0_3    R_47_4_10_1    R_47_4_10_2    R_47_4_10_3    R_47_4_11_1    R_47_4_11_2    R_47_4_11_3    R_47_4_12_1
    R_47_4_12_2    R_47_4_12_3    R_47_4_13_1    R_47_4_13_2    R_47_4_13_3    R_47_4_14_1    R_47_4_14_2    R_47_4_14_3
    R_47_4_15_2    R_47_4_15_3     R_47_4_1_1     R_47_4_1_2     R_47_4_1_3     R_47_4_2_1     R_47_4_2_2     R_47_4_2_3
     R_47_4_3_1     R_47_4_3_2     R_47_4_3_3     R_47_4_4_1     R_47_4_4_2     R_47_4_4_3     R_47_4_5_1     R_47_4_5_2
     R_47_4_5_3     R_47_4_6_1     R_47_4_6_2     R_47_4_6_3     R_47_4_7_1     R_47_4_7_2     R_47_4_7_3     R_47_4_8_1
     R_47_4_8_2     R_47_4_8_3     R_47_4_9_1     R_47_4_9_2     R_47_4_9_3     R_47_5_0_1     R_47_5_0_2     R_47_5_0_3
    R_47_5_10_1    R_47_5_10_2    R_47_5_10_3    R_47_5_11_1    R_47_5_11_2    R_47_5_11_3    R_47_5_12_1    R_47_5_12_2
    R_47_5_12_3    R_47_5_13_1    R_47_5_13_2    R_47_5_13_3    R_47_5_14_1    R_47_5_14_2    R_47_5_14_3    R_47_5_15_2
    R_47_5_15_3     R_47_5_1_1     R_47_5_1_2     R_47_5_1_3     R_47_5_2_1     R_47_5_2_2     R_47_5_2_3     R_47_5_3_1
     R_47_5_3_2     R_47_5_3_3     R_47_5_4_1     R_47_5_4_2     R_47_5_4_3     R_47_5_5_1     R_47_5_5_2     R_47_5_5_3
     R_47_5_6_1     R_47_5_6_2     R_47_5_6_3     R_47_5_7_1     R_47_5_7_2     R_47_5_7_3     R_47_5_8_1     R_47_5_8_2
     R_47_5_8_3     R_47_5_9_1     R_47_5_9_2     R_47_5_9_3     R_47_6_0_1     R_47_6_0_2     R_47_6_0_3    R_47_6_10_1
    R_47_6_10_2    R_47_6_10_3    R_47_6_11_1    R_47_6_11_2    R_47_6_11_3    R_47_6_12_1    R_47_6_12_2    R_47_6_12_3
    R_47_6_13_1    R_47_6_13_2    R_47_6_13_3    R_47_6_14_1    R_47_6_14_2    R_47_6_14_3    R_47_6_15_2    R_47_6_15_3
     R_47_6_1_1     R_47_6_1_2     R_47_6_1_3     R_47_6_2_1     R_47_6_2_2     R_47_6_2_3     R_47_6_3_1     R_47_6_3_2
     R_47_6_3_3     R_47_6_4_1     R_47_6_4_2     R_47_6_4_3     R_47_6_5_1     R_47_6_5_2     R_47_6_5_3     R_47_6_6_1
     R_47_6_6_2     R_47_6_6_3     R_47_6_7_1     R_47_6_7_2     R_47_6_7_3     R_47_6_8_1     R_47_6_8_2     R_47_6_8_3
     R_47_6_9_1     R_47_6_9_2     R_47_6_9_3     R_47_7_0_1     R_47_7_0_2     R_47_7_0_3    R_47_7_10_1    R_47_7_10_2
    R_47_7_10_3    R_47_7_11_1    R_47_7_11_2    R_47_7_11_3    R_47_7_12_1    R_47_7_12_2    R_47_7_12_3    R_47_7_13_1
    R_47_7_13_2    R_47_7_13_3    R_47_7_14_1    R_47_7_14_2    R_47_7_14_3    R_47_7_15_2    R_47_7_15_3     R_47_7_1_1
     R_47_7_1_2     R_47_7_1_3     R_47_7_2_1     R_47_7_2_2     R_47_7_2_3     R_47_7_3_1     R_47_7_3_2     R_47_7_3_3
     R_47_7_4_1     R_47_7_4_2     R_47_7_4_3     R_47_7_5_1     R_47_7_5_2     R_47_7_5_3     R_47_7_6_1     R_47_7_6_2
     R_47_7_6_3     R_47_7_7_1     R_47_7_7_2     R_47_7_7_3     R_47_7_8_1     R_47_7_8_2     R_47_7_8_3     R_47_7_9_1
     R_47_7_9_2     R_47_7_9_3     R_47_8_0_1     R_47_8_0_2     R_47_8_0_3    R_47_8_10_1    R_47_8_10_2    R_47_8_10_3
    R_47_8_11_1    R_47_8_11_2    R_47_8_11_3    R_47_8_12_1    R_47_8_12_2    R_47_8_12_3    R_47_8_13_1    R_47_8_13_2
    R_47_8_13_3    R_47_8_14_1    R_47_8_14_2    R_47_8_14_3    R_47_8_15_2    R_47_8_15_3     R_47_8_1_1     R_47_8_1_2
     R_47_8_1_3     R_47_8_2_1     R_47_8_2_2     R_47_8_2_3     R_47_8_3_1     R_47_8_3_2     R_47_8_3_3     R_47_8_4_1
     R_47_8_4_2     R_47_8_4_3     R_47_8_5_1     R_47_8_5_2     R_47_8_5_3     R_47_8_6_1     R_47_8_6_2     R_47_8_6_3
     R_47_8_7_1     R_47_8_7_2     R_47_8_7_3     R_47_8_8_1     R_47_8_8_2     R_47_8_8_3     R_47_8_9_1     R_47_8_9_2
     R_47_8_9_3     R_47_9_0_1     R_47_9_0_2     R_47_9_0_3    R_47_9_10_1    R_47_9_10_2    R_47_9_10_3    R_47_9_11_1
    R_47_9_11_2    R_47_9_11_3    R_47_9_12_1    R_47_9_12_2    R_47_9_12_3    R_47_9_13_1    R_47_9_13_2    R_47_9_13_3
    R_47_9_14_1    R_47_9_14_2    R_47_9_14_3    R_47_9_15_2    R_47_9_15_3     R_47_9_1_1     R_47_9_1_2     R_47_9_1_3
     R_47_9_2_1     R_47_9_2_2     R_47_9_2_3     R_47_9_3_1     R_47_9_3_2     R_47_9_3_3     R_47_9_4_1     R_47_9_4_2
     R_47_9_4_3     R_47_9_5_1     R_47_9_5_2     R_47_9_5_3     R_47_9_6_1     R_47_9_6_2     R_47_9_6_3     R_47_9_7_1
     R_47_9_7_2     R_47_9_7_3     R_47_9_8_1     R_47_9_8_2     R_47_9_8_3     R_47_9_9_1     R_47_9_9_2     R_47_9_9_3
     R_48_0_0_1     R_48_0_0_2     R_48_0_0_3    R_48_0_10_1    R_48_0_10_2    R_48_0_10_3    R_48_0_11_1    R_48_0_11_2
    R_48_0_11_3    R_48_0_12_1    R_48_0_12_2    R_48_0_12_3    R_48_0_13_1    R_48_0_13_2    R_48_0_13_3    R_48_0_14_1
    R_48_0_14_2    R_48_0_14_3    R_48_0_15_2    R_48_0_15_3     R_48_0_1_1     R_48_0_1_2     R_48_0_1_3     R_48_0_2_1
     R_48_0_2_2     R_48_0_2_3     R_48_0_3_1     R_48_0_3_2     R_48_0_3_3     R_48_0_4_1     R_48_0_4_2     R_48_0_4_3
     R_48_0_5_1     R_48_0_5_2     R_48_0_5_3     R_48_0_6_1     R_48_0_6_2     R_48_0_6_3     R_48_0_7_1     R_48_0_7_2
     R_48_0_7_3     R_48_0_8_1     R_48_0_8_2     R_48_0_8_3     R_48_0_9_1     R_48_0_9_2     R_48_0_9_3    R_48_10_0_1
    R_48_10_0_2    R_48_10_0_3   R_48_10_10_1   R_48_10_10_2   R_48_10_10_3   R_48_10_11_1   R_48_10_11_2   R_48_10_11_3
   R_48_10_12_1   R_48_10_12_2   R_48_10_12_3   R_48_10_13_1   R_48_10_13_2   R_48_10_13_3   R_48_10_14_1   R_48_10_14_2
   R_48_10_14_3   R_48_10_15_2   R_48_10_15_3    R_48_10_1_1    R_48_10_1_2    R_48_10_1_3    R_48_10_2_1    R_48_10_2_2
    R_48_10_2_3    R_48_10_3_1    R_48_10_3_2    R_48_10_3_3    R_48_10_4_1    R_48_10_4_2    R_48_10_4_3    R_48_10_5_1
    R_48_10_5_2    R_48_10_5_3    R_48_10_6_1    R_48_10_6_2    R_48_10_6_3    R_48_10_7_1    R_48_10_7_2    R_48_10_7_3
    R_48_10_8_1    R_48_10_8_2    R_48_10_8_3    R_48_10_9_1    R_48_10_9_2    R_48_10_9_3    R_48_11_0_1    R_48_11_0_2
    R_48_11_0_3   R_48_11_10_1   R_48_11_10_2   R_48_11_10_3   R_48_11_11_1   R_48_11_11_2   R_48_11_11_3   R_48_11_12_1
   R_48_11_12_2   R_48_11_12_3   R_48_11_13_1   R_48_11_13_2   R_48_11_13_3   R_48_11_14_1   R_48_11_14_2   R_48_11_14_3
   R_48_11_15_2   R_48_11_15_3    R_48_11_1_1    R_48_11_1_2    R_48_11_1_3    R_48_11_2_1    R_48_11_2_2    R_48_11_2_3
    R_48_11_3_1    R_48_11_3_2    R_48_11_3_3    R_48_11_4_1    R_48_11_4_2    R_48_11_4_3    R_48_11_5_1    R_48_11_5_2
    R_48_11_5_3    R_48_11_6_1    R_48_11_6_2    R_48_11_6_3    R_48_11_7_1    R_48_11_7_2    R_48_11_7_3    R_48_11_8_1
    R_48_11_8_2    R_48_11_8_3    R_48_11_9_1    R_48_11_9_2    R_48_11_9_3    R_48_12_0_1    R_48_12_0_2    R_48_12_0_3
   R_48_12_10_1   R_48_12_10_2   R_48_12_10_3   R_48_12_11_1   R_48_12_11_2   R_48_12_11_3   R_48_12_12_1   R_48_12_12_2
   R_48_12_12_3   R_48_12_13_1   R_48_12_13_2   R_48_12_13_3   R_48_12_14_1   R_48_12_14_2   R_48_12_14_3   R_48_12_15_2
   R_48_12_15_3    R_48_12_1_1    R_48_12_1_2    R_48_12_1_3    R_48_12_2_1    R_48_12_2_2    R_48_12_2_3    R_48_12_3_1
    R_48_12_3_2    R_48_12_3_3    R_48_12_4_1    R_48_12_4_2    R_48_12_4_3    R_48_12_5_1    R_48_12_5_2    R_48_12_5_3
    R_48_12_6_1    R_48_12_6_2    R_48_12_6_3    R_48_12_7_1    R_48_12_7_2    R_48_12_7_3    R_48_12_8_1    R_48_12_8_2
    R_48_12_8_3    R_48_12_9_1    R_48_12_9_2    R_48_12_9_3    R_48_13_0_1    R_48_13_0_2    R_48_13_0_3   R_48_13_10_1
   R_48_13_10_2   R_48_13_10_3   R_48_13_11_1   R_48_13_11_2   R_48_13_11_3   R_48_13_12_1   R_48_13_12_2   R_48_13_12_3
   R_48_13_13_1   R_48_13_13_2   R_48_13_13_3   R_48_13_14_1   R_48_13_14_2   R_48_13_14_3   R_48_13_15_2   R_48_13_15_3
    R_48_13_1_1    R_48_13_1_2    R_48_13_1_3    R_48_13_2_1    R_48_13_2_2    R_48_13_2_3    R_48_13_3_1    R_48_13_3_2
    R_48_13_3_3    R_48_13_4_1    R_48_13_4_2    R_48_13_4_3    R_48_13_5_1    R_48_13_5_2    R_48_13_5_3    R_48_13_6_1
    R_48_13_6_2    R_48_13_6_3    R_48_13_7_1    R_48_13_7_2    R_48_13_7_3    R_48_13_8_1    R_48_13_8_2    R_48_13_8_3
    R_48_13_9_1    R_48_13_9_2    R_48_13_9_3    R_48_14_0_1    R_48_14_0_2    R_48_14_0_3   R_48_14_10_1   R_48_14_10_2
   R_48_14_10_3   R_48_14_11_1   R_48_14_11_2   R_48_14_11_3   R_48_14_12_1   R_48_14_12_2   R_48_14_12_3   R_48_14_13_1
   R_48_14_13_2   R_48_14_13_3   R_48_14_14_1   R_48_14_14_2   R_48_14_14_3   R_48_14_15_2   R_48_14_15_3    R_48_14_1_1
    R_48_14_1_2    R_48_14_1_3    R_48_14_2_1    R_48_14_2_2    R_48_14_2_3    R_48_14_3_1    R_48_14_3_2    R_48_14_3_3
    R_48_14_4_1    R_48_14_4_2    R_48_14_4_3    R_48_14_5_1    R_48_14_5_2    R_48_14_5_3    R_48_14_6_1    R_48_14_6_2
    R_48_14_6_3    R_48_14_7_1    R_48_14_7_2    R_48_14_7_3    R_48_14_8_1    R_48_14_8_2    R_48_14_8_3    R_48_14_9_1
    R_48_14_9_2    R_48_14_9_3    R_48_15_0_1    R_48_15_0_3   R_48_15_10_1   R_48_15_10_3   R_48_15_11_1   R_48_15_11_3
   R_48_15_12_1   R_48_15_12_3   R_48_15_13_1   R_48_15_13_3   R_48_15_14_1   R_48_15_14_3   R_48_15_15_3    R_48_15_1_1
    R_48_15_1_3    R_48_15_2_1    R_48_15_2_3    R_48_15_3_1    R_48_15_3_3    R_48_15_4_1    R_48_15_4_3    R_48_15_5_1
    R_48_15_5_3    R_48_15_6_1    R_48_15_6_3    R_48_15_7_1    R_48_15_7_3    R_48_15_8_1    R_48_15_8_3    R_48_15_9_1
    R_48_15_9_3     R_48_1_0_1     R_48_1_0_2     R_48_1_0_3    R_48_1_10_1    R_48_1_10_2    R_48_1_10_3    R_48_1_11_1
    R_48_1_11_2    R_48_1_11_3    R_48_1_12_1    R_48_1_12_2    R_48_1_12_3    R_48_1_13_1    R_48_1_13_2    R_48_1_13_3
    R_48_1_14_1    R_48_1_14_2    R_48_1_14_3    R_48_1_15_2    R_48_1_15_3     R_48_1_1_1     R_48_1_1_2     R_48_1_1_3
     R_48_1_2_1     R_48_1_2_2     R_48_1_2_3     R_48_1_3_1     R_48_1_3_2     R_48_1_3_3     R_48_1_4_1     R_48_1_4_2
     R_48_1_4_3     R_48_1_5_1     R_48_1_5_2     R_48_1_5_3     R_48_1_6_1     R_48_1_6_2     R_48_1_6_3     R_48_1_7_1
     R_48_1_7_2     R_48_1_7_3     R_48_1_8_1     R_48_1_8_2     R_48_1_8_3     R_48_1_9_1     R_48_1_9_2     R_48_1_9_3
     R_48_2_0_1     R_48_2_0_2     R_48_2_0_3    R_48_2_10_1    R_48_2_10_2    R_48_2_10_3    R_48_2_11_1    R_48_2_11_2
    R_48_2_11_3    R_48_2_12_1    R_48_2_12_2    R_48_2_12_3    R_48_2_13_1    R_48_2_13_2    R_48_2_13_3    R_48_2_14_1
    R_48_2_14_2    R_48_2_14_3    R_48_2_15_2    R_48_2_15_3     R_48_2_1_1     R_48_2_1_2     R_48_2_1_3     R_48_2_2_1
     R_48_2_2_2     R_48_2_2_3     R_48_2_3_1     R_48_2_3_2     R_48_2_3_3     R_48_2_4_1     R_48_2_4_2     R_48_2_4_3
     R_48_2_5_1     R_48_2_5_2     R_48_2_5_3     R_48_2_6_1     R_48_2_6_2     R_48_2_6_3     R_48_2_7_1     R_48_2_7_2
     R_48_2_7_3     R_48_2_8_1     R_48_2_8_2     R_48_2_8_3     R_48_2_9_1     R_48_2_9_2     R_48_2_9_3     R_48_3_0_1
     R_48_3_0_2     R_48_3_0_3    R_48_3_10_1    R_48_3_10_2    R_48_3_10_3    R_48_3_11_1    R_48_3_11_2    R_48_3_11_3
    R_48_3_12_1    R_48_3_12_2    R_48_3_12_3    R_48_3_13_1    R_48_3_13_2    R_48_3_13_3    R_48_3_14_1    R_48_3_14_2
    R_48_3_14_3    R_48_3_15_2    R_48_3_15_3     R_48_3_1_1     R_48_3_1_2     R_48_3_1_3     R_48_3_2_1     R_48_3_2_2
     R_48_3_2_3     R_48_3_3_1     R_48_3_3_2     R_48_3_3_3     R_48_3_4_1     R_48_3_4_2     R_48_3_4_3     R_48_3_5_1
     R_48_3_5_2     R_48_3_5_3     R_48_3_6_1     R_48_3_6_2     R_48_3_6_3     R_48_3_7_1     R_48_3_7_2     R_48_3_7_3
     R_48_3_8_1     R_48_3_8_2     R_48_3_8_3     R_48_3_9_1     R_48_3_9_2     R_48_3_9_3     R_48_4_0_1     R_48_4_0_2
     R_48_4_0_3    R_48_4_10_1    R_48_4_10_2    R_48_4_10_3    R_48_4_11_1    R_48_4_11_2    R_48_4_11_3    R_48_4_12_1
    R_48_4_12_2    R_48_4_12_3    R_48_4_13_1    R_48_4_13_2    R_48_4_13_3    R_48_4_14_1    R_48_4_14_2    R_48_4_14_3
    R_48_4_15_2    R_48_4_15_3     R_48_4_1_1     R_48_4_1_2     R_48_4_1_3     R_48_4_2_1     R_48_4_2_2     R_48_4_2_3
     R_48_4_3_1     R_48_4_3_2     R_48_4_3_3     R_48_4_4_1     R_48_4_4_2     R_48_4_4_3     R_48_4_5_1     R_48_4_5_2
     R_48_4_5_3     R_48_4_6_1     R_48_4_6_2     R_48_4_6_3     R_48_4_7_1     R_48_4_7_2     R_48_4_7_3     R_48_4_8_1
     R_48_4_8_2     R_48_4_8_3     R_48_4_9_1     R_48_4_9_2     R_48_4_9_3     R_48_5_0_1     R_48_5_0_2     R_48_5_0_3
    R_48_5_10_1    R_48_5_10_2    R_48_5_10_3    R_48_5_11_1    R_48_5_11_2    R_48_5_11_3    R_48_5_12_1    R_48_5_12_2
    R_48_5_12_3    R_48_5_13_1    R_48_5_13_2    R_48_5_13_3    R_48_5_14_1    R_48_5_14_2    R_48_5_14_3    R_48_5_15_2
    R_48_5_15_3     R_48_5_1_1     R_48_5_1_2     R_48_5_1_3     R_48_5_2_1     R_48_5_2_2     R_48_5_2_3     R_48_5_3_1
     R_48_5_3_2     R_48_5_3_3     R_48_5_4_1     R_48_5_4_2     R_48_5_4_3     R_48_5_5_1     R_48_5_5_2     R_48_5_5_3
     R_48_5_6_1     R_48_5_6_2     R_48_5_6_3     R_48_5_7_1     R_48_5_7_2     R_48_5_7_3     R_48_5_8_1     R_48_5_8_2
     R_48_5_8_3     R_48_5_9_1     R_48_5_9_2     R_48_5_9_3     R_48_6_0_1     R_48_6_0_2     R_48_6_0_3    R_48_6_10_1
    R_48_6_10_2    R_48_6_10_3    R_48_6_11_1    R_48_6_11_2    R_48_6_11_3    R_48_6_12_1    R_48_6_12_2    R_48_6_12_3
    R_48_6_13_1    R_48_6_13_2    R_48_6_13_3    R_48_6_14_1    R_48_6_14_2    R_48_6_14_3    R_48_6_15_2    R_48_6_15_3
     R_48_6_1_1     R_48_6_1_2     R_48_6_1_3     R_48_6_2_1     R_48_6_2_2     R_48_6_2_3     R_48_6_3_1     R_48_6_3_2
     R_48_6_3_3     R_48_6_4_1     R_48_6_4_2     R_48_6_4_3     R_48_6_5_1     R_48_6_5_2     R_48_6_5_3     R_48_6_6_1
     R_48_6_6_2     R_48_6_6_3     R_48_6_7_1     R_48_6_7_2     R_48_6_7_3     R_48_6_8_1     R_48_6_8_2     R_48_6_8_3
     R_48_6_9_1     R_48_6_9_2     R_48_6_9_3     R_48_7_0_1     R_48_7_0_2     R_48_7_0_3    R_48_7_10_1    R_48_7_10_2
    R_48_7_10_3    R_48_7_11_1    R_48_7_11_2    R_48_7_11_3    R_48_7_12_1    R_48_7_12_2    R_48_7_12_3    R_48_7_13_1
    R_48_7_13_2    R_48_7_13_3    R_48_7_14_1    R_48_7_14_2    R_48_7_14_3    R_48_7_15_2    R_48_7_15_3     R_48_7_1_1
     R_48_7_1_2     R_48_7_1_3     R_48_7_2_1     R_48_7_2_2     R_48_7_2_3     R_48_7_3_1     R_48_7_3_2     R_48_7_3_3
     R_48_7_4_1     R_48_7_4_2     R_48_7_4_3     R_48_7_5_1     R_48_7_5_2     R_48_7_5_3     R_48_7_6_1     R_48_7_6_2
     R_48_7_6_3     R_48_7_7_1     R_48_7_7_2     R_48_7_7_3     R_48_7_8_1     R_48_7_8_2     R_48_7_8_3     R_48_7_9_1
     R_48_7_9_2     R_48_7_9_3     R_48_8_0_1     R_48_8_0_2     R_48_8_0_3    R_48_8_10_1    R_48_8_10_2    R_48_8_10_3
    R_48_8_11_1    R_48_8_11_2    R_48_8_11_3    R_48_8_12_1    R_48_8_12_2    R_48_8_12_3    R_48_8_13_1    R_48_8_13_2
    R_48_8_13_3    R_48_8_14_1    R_48_8_14_2    R_48_8_14_3    R_48_8_15_2    R_48_8_15_3     R_48_8_1_1     R_48_8_1_2
     R_48_8_1_3     R_48_8_2_1     R_48_8_2_2     R_48_8_2_3     R_48_8_3_1     R_48_8_3_2     R_48_8_3_3     R_48_8_4_1
     R_48_8_4_2     R_48_8_4_3     R_48_8_5_1     R_48_8_5_2     R_48_8_5_3     R_48_8_6_1     R_48_8_6_2     R_48_8_6_3
     R_48_8_7_1     R_48_8_7_2     R_48_8_7_3     R_48_8_8_1     R_48_8_8_2     R_48_8_8_3     R_48_8_9_1     R_48_8_9_2
     R_48_8_9_3     R_48_9_0_1     R_48_9_0_2     R_48_9_0_3    R_48_9_10_1    R_48_9_10_2    R_48_9_10_3    R_48_9_11_1
    R_48_9_11_2    R_48_9_11_3    R_48_9_12_1    R_48_9_12_2    R_48_9_12_3    R_48_9_13_1    R_48_9_13_2    R_48_9_13_3
    R_48_9_14_1    R_48_9_14_2    R_48_9_14_3    R_48_9_15_2    R_48_9_15_3     R_48_9_1_1     R_48_9_1_2     R_48_9_1_3
     R_48_9_2_1     R_48_9_2_2     R_48_9_2_3     R_48_9_3_1     R_48_9_3_2     R_48_9_3_3     R_48_9_4_1     R_48_9_4_2
     R_48_9_4_3     R_48_9_5_1     R_48_9_5_2     R_48_9_5_3     R_48_9_6_1     R_48_9_6_2     R_48_9_6_3     R_48_9_7_1
     R_48_9_7_2     R_48_9_7_3     R_48_9_8_1     R_48_9_8_2     R_48_9_8_3     R_48_9_9_1     R_48_9_9_2     R_48_9_9_3
     R_49_0_0_1     R_49_0_0_2     R_49_0_0_3    R_49_0_10_1    R_49_0_10_2    R_49_0_10_3    R_49_0_11_1    R_49_0_11_2
    R_49_0_11_3    R_49_0_12_1    R_49_0_12_2    R_49_0_12_3    R_49_0_13_1    R_49_0_13_2    R_49_0_13_3    R_49_0_14_1
    R_49_0_14_2    R_49_0_14_3    R_49_0_15_2    R_49_0_15_3     R_49_0_1_1     R_49_0_1_2     R_49_0_1_3     R_49_0_2_1
     R_49_0_2_2     R_49_0_2_3     R_49_0_3_1     R_49_0_3_2     R_49_0_3_3     R_49_0_4_1     R_49_0_4_2     R_49_0_4_3
     R_49_0_5_1     R_49_0_5_2     R_49_0_5_3     R_49_0_6_1     R_49_0_6_2     R_49_0_6_3     R_49_0_7_1     R_49_0_7_2
     R_49_0_7_3     R_49_0_8_1     R_49_0_8_2     R_49_0_8_3     R_49_0_9_1     R_49_0_9_2     R_49_0_9_3    R_49_10_0_1
    R_49_10_0_2    R_49_10_0_3   R_49_10_10_1   R_49_10_10_2   R_49_10_10_3   R_49_10_11_1   R_49_10_11_2   R_49_10_11_3
   R_49_10_12_1   R_49_10_12_2   R_49_10_12_3   R_49_10_13_1   R_49_10_13_2   R_49_10_13_3   R_49_10_14_1   R_49_10_14_2
   R_49_10_14_3   R_49_10_15_2   R_49_10_15_3    R_49_10_1_1    R_49_10_1_2    R_49_10_1_3    R_49_10_2_1    R_49_10_2_2
    R_49_10_2_3    R_49_10_3_1    R_49_10_3_2    R_49_10_3_3    R_49_10_4_1    R_49_10_4_2    R_49_10_4_3    R_49_10_5_1
    R_49_10_5_2    R_49_10_5_3    R_49_10_6_1    R_49_10_6_2    R_49_10_6_3    R_49_10_7_1    R_49_10_7_2    R_49_10_7_3
    R_49_10_8_1    R_49_10_8_2    R_49_10_8_3    R_49_10_9_1    R_49_10_9_2    R_49_10_9_3    R_49_11_0_1    R_49_11_0_2
    R_49_11_0_3   R_49_11_10_1   R_49_11_10_2   R_49_11_10_3   R_49_11_11_1   R_49_11_11_2   R_49_11_11_3   R_49_11_12_1
   R_49_11_12_2   R_49_11_12_3   R_49_11_13_1   R_49_11_13_2   R_49_11_13_3   R_49_11_14_1   R_49_11_14_2   R_49_11_14_3
   R_49_11_15_2   R_49_11_15_3    R_49_11_1_1    R_49_11_1_2    R_49_11_1_3    R_49_11_2_1    R_49_11_2_2    R_49_11_2_3
    R_49_11_3_1    R_49_11_3_2    R_49_11_3_3    R_49_11_4_1    R_49_11_4_2    R_49_11_4_3    R_49_11_5_1    R_49_11_5_2
    R_49_11_5_3    R_49_11_6_1    R_49_11_6_2    R_49_11_6_3    R_49_11_7_1    R_49_11_7_2    R_49_11_7_3    R_49_11_8_1
    R_49_11_8_2    R_49_11_8_3    R_49_11_9_1    R_49_11_9_2    R_49_11_9_3    R_49_12_0_1    R_49_12_0_2    R_49_12_0_3
   R_49_12_10_1   R_49_12_10_2   R_49_12_10_3   R_49_12_11_1   R_49_12_11_2   R_49_12_11_3   R_49_12_12_1   R_49_12_12_2
   R_49_12_12_3   R_49_12_13_1   R_49_12_13_2   R_49_12_13_3   R_49_12_14_1   R_49_12_14_2   R_49_12_14_3   R_49_12_15_2
   R_49_12_15_3    R_49_12_1_1    R_49_12_1_2    R_49_12_1_3    R_49_12_2_1    R_49_12_2_2    R_49_12_2_3    R_49_12_3_1
    R_49_12_3_2    R_49_12_3_3    R_49_12_4_1    R_49_12_4_2    R_49_12_4_3    R_49_12_5_1    R_49_12_5_2    R_49_12_5_3
    R_49_12_6_1    R_49_12_6_2    R_49_12_6_3    R_49_12_7_1    R_49_12_7_2    R_49_12_7_3    R_49_12_8_1    R_49_12_8_2
    R_49_12_8_3    R_49_12_9_1    R_49_12_9_2    R_49_12_9_3    R_49_13_0_1    R_49_13_0_2    R_49_13_0_3   R_49_13_10_1
   R_49_13_10_2   R_49_13_10_3   R_49_13_11_1   R_49_13_11_2   R_49_13_11_3   R_49_13_12_1   R_49_13_12_2   R_49_13_12_3
   R_49_13_13_1   R_49_13_13_2   R_49_13_13_3   R_49_13_14_1   R_49_13_14_2   R_49_13_14_3   R_49_13_15_2   R_49_13_15_3
    R_49_13_1_1    R_49_13_1_2    R_49_13_1_3    R_49_13_2_1    R_49_13_2_2    R_49_13_2_3    R_49_13_3_1    R_49_13_3_2
    R_49_13_3_3    R_49_13_4_1    R_49_13_4_2    R_49_13_4_3    R_49_13_5_1    R_49_13_5_2    R_49_13_5_3    R_49_13_6_1
    R_49_13_6_2    R_49_13_6_3    R_49_13_7_1    R_49_13_7_2    R_49_13_7_3    R_49_13_8_1    R_49_13_8_2    R_49_13_8_3
    R_49_13_9_1    R_49_13_9_2    R_49_13_9_3    R_49_14_0_1    R_49_14_0_2    R_49_14_0_3   R_49_14_10_1   R_49_14_10_2
   R_49_14_10_3   R_49_14_11_1   R_49_14_11_2   R_49_14_11_3   R_49_14_12_1   R_49_14_12_2   R_49_14_12_3   R_49_14_13_1
   R_49_14_13_2   R_49_14_13_3   R_49_14_14_1   R_49_14_14_2   R_49_14_14_3   R_49_14_15_2   R_49_14_15_3    R_49_14_1_1
    R_49_14_1_2    R_49_14_1_3    R_49_14_2_1    R_49_14_2_2    R_49_14_2_3    R_49_14_3_1    R_49_14_3_2    R_49_14_3_3
    R_49_14_4_1    R_49_14_4_2    R_49_14_4_3    R_49_14_5_1    R_49_14_5_2    R_49_14_5_3    R_49_14_6_1    R_49_14_6_2
    R_49_14_6_3    R_49_14_7_1    R_49_14_7_2    R_49_14_7_3    R_49_14_8_1    R_49_14_8_2    R_49_14_8_3    R_49_14_9_1
    R_49_14_9_2    R_49_14_9_3    R_49_15_0_1    R_49_15_0_3   R_49_15_10_1   R_49_15_10_3   R_49_15_11_1   R_49_15_11_3
   R_49_15_12_1   R_49_15_12_3   R_49_15_13_1   R_49_15_13_3   R_49_15_14_1   R_49_15_14_3   R_49_15_15_3    R_49_15_1_1
    R_49_15_1_3    R_49_15_2_1    R_49_15_2_3    R_49_15_3_1    R_49_15_3_3    R_49_15_4_1    R_49_15_4_3    R_49_15_5_1
    R_49_15_5_3    R_49_15_6_1    R_49_15_6_3    R_49_15_7_1    R_49_15_7_3    R_49_15_8_1    R_49_15_8_3    R_49_15_9_1
    R_49_15_9_3     R_49_1_0_1     R_49_1_0_2     R_49_1_0_3    R_49_1_10_1    R_49_1_10_2    R_49_1_10_3    R_49_1_11_1
    R_49_1_11_2    R_49_1_11_3    R_49_1_12_1    R_49_1_12_2    R_49_1_12_3    R_49_1_13_1    R_49_1_13_2    R_49_1_13_3
    R_49_1_14_1    R_49_1_14_2    R_49_1_14_3    R_49_1_15_2    R_49_1_15_3     R_49_1_1_1     R_49_1_1_2     R_49_1_1_3
     R_49_1_2_1     R_49_1_2_2     R_49_1_2_3     R_49_1_3_1     R_49_1_3_2     R_49_1_3_3     R_49_1_4_1     R_49_1_4_2
     R_49_1_4_3     R_49_1_5_1     R_49_1_5_2     R_49_1_5_3     R_49_1_6_1     R_49_1_6_2     R_49_1_6_3     R_49_1_7_1
     R_49_1_7_2     R_49_1_7_3     R_49_1_8_1     R_49_1_8_2     R_49_1_8_3     R_49_1_9_1     R_49_1_9_2     R_49_1_9_3
     R_49_2_0_1     R_49_2_0_2     R_49_2_0_3    R_49_2_10_1    R_49_2_10_2    R_49_2_10_3    R_49_2_11_1    R_49_2_11_2
    R_49_2_11_3    R_49_2_12_1    R_49_2_12_2    R_49_2_12_3    R_49_2_13_1    R_49_2_13_2    R_49_2_13_3    R_49_2_14_1
    R_49_2_14_2    R_49_2_14_3    R_49_2_15_2    R_49_2_15_3     R_49_2_1_1     R_49_2_1_2     R_49_2_1_3     R_49_2_2_1
     R_49_2_2_2     R_49_2_2_3     R_49_2_3_1     R_49_2_3_2     R_49_2_3_3     R_49_2_4_1     R_49_2_4_2     R_49_2_4_3
     R_49_2_5_1     R_49_2_5_2     R_49_2_5_3     R_49_2_6_1     R_49_2_6_2     R_49_2_6_3     R_49_2_7_1     R_49_2_7_2
     R_49_2_7_3     R_49_2_8_1     R_49_2_8_2     R_49_2_8_3     R_49_2_9_1     R_49_2_9_2     R_49_2_9_3     R_49_3_0_1
     R_49_3_0_2     R_49_3_0_3    R_49_3_10_1    R_49_3_10_2    R_49_3_10_3    R_49_3_11_1    R_49_3_11_2    R_49_3_11_3
    R_49_3_12_1    R_49_3_12_2    R_49_3_12_3    R_49_3_13_1    R_49_3_13_2    R_49_3_13_3    R_49_3_14_1    R_49_3_14_2
    R_49_3_14_3    R_49_3_15_2    R_49_3_15_3     R_49_3_1_1     R_49_3_1_2     R_49_3_1_3     R_49_3_2_1     R_49_3_2_2
     R_49_3_2_3     R_49_3_3_1     R_49_3_3_2     R_49_3_3_3     R_49_3_4_1     R_49_3_4_2     R_49_3_4_3     R_49_3_5_1
     R_49_3_5_2     R_49_3_5_3     R_49_3_6_1     R_49_3_6_2     R_49_3_6_3     R_49_3_7_1     R_49_3_7_2     R_49_3_7_3
     R_49_3_8_1     R_49_3_8_2     R_49_3_8_3     R_49_3_9_1     R_49_3_9_2     R_49_3_9_3     R_49_4_0_1     R_49_4_0_2
     R_49_4_0_3    R_49_4_10_1    R_49_4_10_2    R_49_4_10_3    R_49_4_11_1    R_49_4_11_2    R_49_4_11_3    R_49_4_12_1
    R_49_4_12_2    R_49_4_12_3    R_49_4_13_1    R_49_4_13_2    R_49_4_13_3    R_49_4_14_1    R_49_4_14_2    R_49_4_14_3
    R_49_4_15_2    R_49_4_15_3     R_49_4_1_1     R_49_4_1_2     R_49_4_1_3     R_49_4_2_1     R_49_4_2_2     R_49_4_2_3
     R_49_4_3_1     R_49_4_3_2     R_49_4_3_3     R_49_4_4_1     R_49_4_4_2     R_49_4_4_3     R_49_4_5_1     R_49_4_5_2
     R_49_4_5_3     R_49_4_6_1     R_49_4_6_2     R_49_4_6_3     R_49_4_7_1     R_49_4_7_2     R_49_4_7_3     R_49_4_8_1
     R_49_4_8_2     R_49_4_8_3     R_49_4_9_1     R_49_4_9_2     R_49_4_9_3     R_49_5_0_1     R_49_5_0_2     R_49_5_0_3
    R_49_5_10_1    R_49_5_10_2    R_49_5_10_3    R_49_5_11_1    R_49_5_11_2    R_49_5_11_3    R_49_5_12_1    R_49_5_12_2
    R_49_5_12_3    R_49_5_13_1    R_49_5_13_2    R_49_5_13_3    R_49_5_14_1    R_49_5_14_2    R_49_5_14_3    R_49_5_15_2
    R_49_5_15_3     R_49_5_1_1     R_49_5_1_2     R_49_5_1_3     R_49_5_2_1     R_49_5_2_2     R_49_5_2_3     R_49_5_3_1
     R_49_5_3_2     R_49_5_3_3     R_49_5_4_1     R_49_5_4_2     R_49_5_4_3     R_49_5_5_1     R_49_5_5_2     R_49_5_5_3
     R_49_5_6_1     R_49_5_6_2     R_49_5_6_3     R_49_5_7_1     R_49_5_7_2     R_49_5_7_3     R_49_5_8_1     R_49_5_8_2
     R_49_5_8_3     R_49_5_9_1     R_49_5_9_2     R_49_5_9_3     R_49_6_0_1     R_49_6_0_2     R_49_6_0_3    R_49_6_10_1
    R_49_6_10_2    R_49_6_10_3    R_49_6_11_1    R_49_6_11_2    R_49_6_11_3    R_49_6_12_1    R_49_6_12_2    R_49_6_12_3
    R_49_6_13_1    R_49_6_13_2    R_49_6_13_3    R_49_6_14_1    R_49_6_14_2    R_49_6_14_3    R_49_6_15_2    R_49_6_15_3
     R_49_6_1_1     R_49_6_1_2     R_49_6_1_3     R_49_6_2_1     R_49_6_2_2     R_49_6_2_3     R_49_6_3_1     R_49_6_3_2
     R_49_6_3_3     R_49_6_4_1     R_49_6_4_2     R_49_6_4_3     R_49_6_5_1     R_49_6_5_2     R_49_6_5_3     R_49_6_6_1
     R_49_6_6_2     R_49_6_6_3     R_49_6_7_1     R_49_6_7_2     R_49_6_7_3     R_49_6_8_1     R_49_6_8_2     R_49_6_8_3
     R_49_6_9_1     R_49_6_9_2     R_49_6_9_3     R_49_7_0_1     R_49_7_0_2     R_49_7_0_3    R_49_7_10_1    R_49_7_10_2
    R_49_7_10_3    R_49_7_11_1    R_49_7_11_2    R_49_7_11_3    R_49_7_12_1    R_49_7_12_2    R_49_7_12_3    R_49_7_13_1
    R_49_7_13_2    R_49_7_13_3    R_49_7_14_1    R_49_7_14_2    R_49_7_14_3    R_49_7_15_2    R_49_7_15_3     R_49_7_1_1
     R_49_7_1_2     R_49_7_1_3     R_49_7_2_1     R_49_7_2_2     R_49_7_2_3     R_49_7_3_1     R_49_7_3_2     R_49_7_3_3
     R_49_7_4_1     R_49_7_4_2     R_49_7_4_3     R_49_7_5_1     R_49_7_5_2     R_49_7_5_3     R_49_7_6_1     R_49_7_6_2
     R_49_7_6_3     R_49_7_7_1     R_49_7_7_2     R_49_7_7_3     R_49_7_8_1     R_49_7_8_2     R_49_7_8_3     R_49_7_9_1
     R_49_7_9_2     R_49_7_9_3     R_49_8_0_1     R_49_8_0_2     R_49_8_0_3    R_49_8_10_1    R_49_8_10_2    R_49_8_10_3
    R_49_8_11_1    R_49_8_11_2    R_49_8_11_3    R_49_8_12_1    R_49_8_12_2    R_49_8_12_3    R_49_8_13_1    R_49_8_13_2
    R_49_8_13_3    R_49_8_14_1    R_49_8_14_2    R_49_8_14_3    R_49_8_15_2    R_49_8_15_3     R_49_8_1_1     R_49_8_1_2
     R_49_8_1_3     R_49_8_2_1     R_49_8_2_2     R_49_8_2_3     R_49_8_3_1     R_49_8_3_2     R_49_8_3_3     R_49_8_4_1
     R_49_8_4_2     R_49_8_4_3     R_49_8_5_1     R_49_8_5_2     R_49_8_5_3     R_49_8_6_1     R_49_8_6_2     R_49_8_6_3
     R_49_8_7_1     R_49_8_7_2     R_49_8_7_3     R_49_8_8_1     R_49_8_8_2     R_49_8_8_3     R_49_8_9_1     R_49_8_9_2
     R_49_8_9_3     R_49_9_0_1     R_49_9_0_2     R_49_9_0_3    R_49_9_10_1    R_49_9_10_2    R_49_9_10_3    R_49_9_11_1
    R_49_9_11_2    R_49_9_11_3    R_49_9_12_1    R_49_9_12_2    R_49_9_12_3    R_49_9_13_1    R_49_9_13_2    R_49_9_13_3
    R_49_9_14_1    R_49_9_14_2    R_49_9_14_3    R_49_9_15_2    R_49_9_15_3     R_49_9_1_1     R_49_9_1_2     R_49_9_1_3
     R_49_9_2_1     R_49_9_2_2     R_49_9_2_3     R_49_9_3_1     R_49_9_3_2     R_49_9_3_3     R_49_9_4_1     R_49_9_4_2
     R_49_9_4_3     R_49_9_5_1     R_49_9_5_2     R_49_9_5_3     R_49_9_6_1     R_49_9_6_2     R_49_9_6_3     R_49_9_7_1
     R_49_9_7_2     R_49_9_7_3     R_49_9_8_1     R_49_9_8_2     R_49_9_8_3     R_49_9_9_1     R_49_9_9_2     R_49_9_9_3
     R_50_0_0_1     R_50_0_0_2     R_50_0_0_3    R_50_0_10_1    R_50_0_10_2    R_50_0_10_3    R_50_0_11_1    R_50_0_11_2
    R_50_0_11_3    R_50_0_12_1    R_50_0_12_2    R_50_0_12_3    R_50_0_13_1    R_50_0_13_2    R_50_0_13_3    R_50_0_14_1
    R_50_0_14_2    R_50_0_14_3    R_50_0_15_2    R_50_0_15_3     R_50_0_1_1     R_50_0_1_2     R_50_0_1_3     R_50_0_2_1
     R_50_0_2_2     R_50_0_2_3     R_50_0_3_1     R_50_0_3_2     R_50_0_3_3     R_50_0_4_1     R_50_0_4_2     R_50_0_4_3
     R_50_0_5_1     R_50_0_5_2     R_50_0_5_3     R_50_0_6_1     R_50_0_6_2     R_50_0_6_3     R_50_0_7_1     R_50_0_7_2
     R_50_0_7_3     R_50_0_8_1     R_50_0_8_2     R_50_0_8_3     R_50_0_9_1     R_50_0_9_2     R_50_0_9_3    R_50_10_0_1
    R_50_10_0_2    R_50_10_0_3   R_50_10_10_1   R_50_10_10_2   R_50_10_10_3   R_50_10_11_1   R_50_10_11_2   R_50_10_11_3
   R_50_10_12_1   R_50_10_12_2   R_50_10_12_3   R_50_10_13_1   R_50_10_13_2   R_50_10_13_3   R_50_10_14_1   R_50_10_14_2
   R_50_10_14_3   R_50_10_15_2   R_50_10_15_3    R_50_10_1_1    R_50_10_1_2    R_50_10_1_3    R_50_10_2_1    R_50_10_2_2
    R_50_10_2_3    R_50_10_3_1    R_50_10_3_2    R_50_10_3_3    R_50_10_4_1    R_50_10_4_2    R_50_10_4_3    R_50_10_5_1
    R_50_10_5_2    R_50_10_5_3    R_50_10_6_1    R_50_10_6_2    R_50_10_6_3    R_50_10_7_1    R_50_10_7_2    R_50_10_7_3
    R_50_10_8_1    R_50_10_8_2    R_50_10_8_3    R_50_10_9_1    R_50_10_9_2    R_50_10_9_3    R_50_11_0_1    R_50_11_0_2
    R_50_11_0_3   R_50_11_10_1   R_50_11_10_2   R_50_11_10_3   R_50_11_11_1   R_50_11_11_2   R_50_11_11_3   R_50_11_12_1
   R_50_11_12_2   R_50_11_12_3   R_50_11_13_1   R_50_11_13_2   R_50_11_13_3   R_50_11_14_1   R_50_11_14_2   R_50_11_14_3
   R_50_11_15_2   R_50_11_15_3    R_50_11_1_1    R_50_11_1_2    R_50_11_1_3    R_50_11_2_1    R_50_11_2_2    R_50_11_2_3
    R_50_11_3_1    R_50_11_3_2    R_50_11_3_3    R_50_11_4_1    R_50_11_4_2    R_50_11_4_3    R_50_11_5_1    R_50_11_5_2
    R_50_11_5_3    R_50_11_6_1    R_50_11_6_2    R_50_11_6_3    R_50_11_7_1    R_50_11_7_2    R_50_11_7_3    R_50_11_8_1
    R_50_11_8_2    R_50_11_8_3    R_50_11_9_1    R_50_11_9_2    R_50_11_9_3    R_50_12_0_1    R_50_12_0_2    R_50_12_0_3
   R_50_12_10_1   R_50_12_10_2   R_50_12_10_3   R_50_12_11_1   R_50_12_11_2   R_50_12_11_3   R_50_12_12_1   R_50_12_12_2
   R_50_12_12_3   R_50_12_13_1   R_50_12_13_2   R_50_12_13_3   R_50_12_14_1   R_50_12_14_2   R_50_12_14_3   R_50_12_15_2
   R_50_12_15_3    R_50_12_1_1    R_50_12_1_2    R_50_12_1_3    R_50_12_2_1    R_50_12_2_2    R_50_12_2_3    R_50_12_3_1
    R_50_12_3_2    R_50_12_3_3    R_50_12_4_1    R_50_12_4_2    R_50_12_4_3    R_50_12_5_1    R_50_12_5_2    R_50_12_5_3
    R_50_12_6_1    R_50_12_6_2    R_50_12_6_3    R_50_12_7_1    R_50_12_7_2    R_50_12_7_3    R_50_12_8_1    R_50_12_8_2
    R_50_12_8_3    R_50_12_9_1    R_50_12_9_2    R_50_12_9_3    R_50_13_0_1    R_50_13_0_2    R_50_13_0_3   R_50_13_10_1
   R_50_13_10_2   R_50_13_10_3   R_50_13_11_1   R_50_13_11_2   R_50_13_11_3   R_50_13_12_1   R_50_13_12_2   R_50_13_12_3
   R_50_13_13_1   R_50_13_13_2   R_50_13_13_3   R_50_13_14_1   R_50_13_14_2   R_50_13_14_3   R_50_13_15_2   R_50_13_15_3
    R_50_13_1_1    R_50_13_1_2    R_50_13_1_3    R_50_13_2_1    R_50_13_2_2    R_50_13_2_3    R_50_13_3_1    R_50_13_3_2
    R_50_13_3_3    R_50_13_4_1    R_50_13_4_2    R_50_13_4_3    R_50_13_5_1    R_50_13_5_2    R_50_13_5_3    R_50_13_6_1
    R_50_13_6_2    R_50_13_6_3    R_50_13_7_1    R_50_13_7_2    R_50_13_7_3    R_50_13_8_1    R_50_13_8_2    R_50_13_8_3
    R_50_13_9_1    R_50_13_9_2    R_50_13_9_3    R_50_14_0_1    R_50_14_0_2    R_50_14_0_3   R_50_14_10_1   R_50_14_10_2
   R_50_14_10_3   R_50_14_11_1   R_50_14_11_2   R_50_14_11_3   R_50_14_12_1   R_50_14_12_2   R_50_14_12_3   R_50_14_13_1
   R_50_14_13_2   R_50_14_13_3   R_50_14_14_1   R_50_14_14_2   R_50_14_14_3   R_50_14_15_2   R_50_14_15_3    R_50_14_1_1
    R_50_14_1_2    R_50_14_1_3    R_50_14_2_1    R_50_14_2_2    R_50_14_2_3    R_50_14_3_1    R_50_14_3_2    R_50_14_3_3
    R_50_14_4_1    R_50_14_4_2    R_50_14_4_3    R_50_14_5_1    R_50_14_5_2    R_50_14_5_3    R_50_14_6_1    R_50_14_6_2
    R_50_14_6_3    R_50_14_7_1    R_50_14_7_2    R_50_14_7_3    R_50_14_8_1    R_50_14_8_2    R_50_14_8_3    R_50_14_9_1
    R_50_14_9_2    R_50_14_9_3    R_50_15_0_1    R_50_15_0_3   R_50_15_10_1   R_50_15_10_3   R_50_15_11_1   R_50_15_11_3
   R_50_15_12_1   R_50_15_12_3   R_50_15_13_1   R_50_15_13_3   R_50_15_14_1   R_50_15_14_3   R_50_15_15_3    R_50_15_1_1
    R_50_15_1_3    R_50_15_2_1    R_50_15_2_3    R_50_15_3_1    R_50_15_3_3    R_50_15_4_1    R_50_15_4_3    R_50_15_5_1
    R_50_15_5_3    R_50_15_6_1    R_50_15_6_3    R_50_15_7_1    R_50_15_7_3    R_50_15_8_1    R_50_15_8_3    R_50_15_9_1
    R_50_15_9_3     R_50_1_0_1     R_50_1_0_2     R_50_1_0_3    R_50_1_10_1    R_50_1_10_2    R_50_1_10_3    R_50_1_11_1
    R_50_1_11_2    R_50_1_11_3    R_50_1_12_1    R_50_1_12_2    R_50_1_12_3    R_50_1_13_1    R_50_1_13_2    R_50_1_13_3
    R_50_1_14_1    R_50_1_14_2    R_50_1_14_3    R_50_1_15_2    R_50_1_15_3     R_50_1_1_1     R_50_1_1_2     R_50_1_1_3
     R_50_1_2_1     R_50_1_2_2     R_50_1_2_3     R_50_1_3_1     R_50_1_3_2     R_50_1_3_3     R_50_1_4_1     R_50_1_4_2
     R_50_1_4_3     R_50_1_5_1     R_50_1_5_2     R_50_1_5_3     R_50_1_6_1     R_50_1_6_2     R_50_1_6_3     R_50_1_7_1
     R_50_1_7_2     R_50_1_7_3     R_50_1_8_1     R_50_1_8_2     R_50_1_8_3     R_50_1_9_1     R_50_1_9_2     R_50_1_9_3
     R_50_2_0_1     R_50_2_0_2     R_50_2_0_3    R_50_2_10_1    R_50_2_10_2    R_50_2_10_3    R_50_2_11_1    R_50_2_11_2
    R_50_2_11_3    R_50_2_12_1    R_50_2_12_2    R_50_2_12_3    R_50_2_13_1    R_50_2_13_2    R_50_2_13_3    R_50_2_14_1
    R_50_2_14_2    R_50_2_14_3    R_50_2_15_2    R_50_2_15_3     R_50_2_1_1     R_50_2_1_2     R_50_2_1_3     R_50_2_2_1
     R_50_2_2_2     R_50_2_2_3     R_50_2_3_1     R_50_2_3_2     R_50_2_3_3     R_50_2_4_1     R_50_2_4_2     R_50_2_4_3
     R_50_2_5_1     R_50_2_5_2     R_50_2_5_3     R_50_2_6_1     R_50_2_6_2     R_50_2_6_3     R_50_2_7_1     R_50_2_7_2
     R_50_2_7_3     R_50_2_8_1     R_50_2_8_2     R_50_2_8_3     R_50_2_9_1     R_50_2_9_2     R_50_2_9_3     R_50_3_0_1
     R_50_3_0_2     R_50_3_0_3    R_50_3_10_1    R_50_3_10_2    R_50_3_10_3    R_50_3_11_1    R_50_3_11_2    R_50_3_11_3
    R_50_3_12_1    R_50_3_12_2    R_50_3_12_3    R_50_3_13_1    R_50_3_13_2    R_50_3_13_3    R_50_3_14_1    R_50_3_14_2
    R_50_3_14_3    R_50_3_15_2    R_50_3_15_3     R_50_3_1_1     R_50_3_1_2     R_50_3_1_3     R_50_3_2_1     R_50_3_2_2
     R_50_3_2_3     R_50_3_3_1     R_50_3_3_2     R_50_3_3_3     R_50_3_4_1     R_50_3_4_2     R_50_3_4_3     R_50_3_5_1
     R_50_3_5_2     R_50_3_5_3     R_50_3_6_1     R_50_3_6_2     R_50_3_6_3     R_50_3_7_1     R_50_3_7_2     R_50_3_7_3
     R_50_3_8_1     R_50_3_8_2     R_50_3_8_3     R_50_3_9_1     R_50_3_9_2     R_50_3_9_3     R_50_4_0_1     R_50_4_0_2
     R_50_4_0_3    R_50_4_10_1    R_50_4_10_2    R_50_4_10_3    R_50_4_11_1    R_50_4_11_2    R_50_4_11_3    R_50_4_12_1
    R_50_4_12_2    R_50_4_12_3    R_50_4_13_1    R_50_4_13_2    R_50_4_13_3    R_50_4_14_1    R_50_4_14_2    R_50_4_14_3
    R_50_4_15_2    R_50_4_15_3     R_50_4_1_1     R_50_4_1_2     R_50_4_1_3     R_50_4_2_1     R_50_4_2_2     R_50_4_2_3
     R_50_4_3_1     R_50_4_3_2     R_50_4_3_3     R_50_4_4_1     R_50_4_4_2     R_50_4_4_3     R_50_4_5_1     R_50_4_5_2
     R_50_4_5_3     R_50_4_6_1     R_50_4_6_2     R_50_4_6_3     R_50_4_7_1     R_50_4_7_2     R_50_4_7_3     R_50_4_8_1
     R_50_4_8_2     R_50_4_8_3     R_50_4_9_1     R_50_4_9_2     R_50_4_9_3     R_50_5_0_1     R_50_5_0_2     R_50_5_0_3
    R_50_5_10_1    R_50_5_10_2    R_50_5_10_3    R_50_5_11_1    R_50_5_11_2    R_50_5_11_3    R_50_5_12_1    R_50_5_12_2
    R_50_5_12_3    R_50_5_13_1    R_50_5_13_2    R_50_5_13_3    R_50_5_14_1    R_50_5_14_2    R_50_5_14_3    R_50_5_15_2
    R_50_5_15_3     R_50_5_1_1     R_50_5_1_2     R_50_5_1_3     R_50_5_2_1     R_50_5_2_2     R_50_5_2_3     R_50_5_3_1
     R_50_5_3_2     R_50_5_3_3     R_50_5_4_1     R_50_5_4_2     R_50_5_4_3     R_50_5_5_1     R_50_5_5_2     R_50_5_5_3
     R_50_5_6_1     R_50_5_6_2     R_50_5_6_3     R_50_5_7_1     R_50_5_7_2     R_50_5_7_3     R_50_5_8_1     R_50_5_8_2
     R_50_5_8_3     R_50_5_9_1     R_50_5_9_2     R_50_5_9_3     R_50_6_0_1     R_50_6_0_2     R_50_6_0_3    R_50_6_10_1
    R_50_6_10_2    R_50_6_10_3    R_50_6_11_1    R_50_6_11_2    R_50_6_11_3    R_50_6_12_1    R_50_6_12_2    R_50_6_12_3
    R_50_6_13_1    R_50_6_13_2    R_50_6_13_3    R_50_6_14_1    R_50_6_14_2    R_50_6_14_3    R_50_6_15_2    R_50_6_15_3
     R_50_6_1_1     R_50_6_1_2     R_50_6_1_3     R_50_6_2_1     R_50_6_2_2     R_50_6_2_3     R_50_6_3_1     R_50_6_3_2
     R_50_6_3_3     R_50_6_4_1     R_50_6_4_2     R_50_6_4_3     R_50_6_5_1     R_50_6_5_2     R_50_6_5_3     R_50_6_6_1
     R_50_6_6_2     R_50_6_6_3     R_50_6_7_1     R_50_6_7_2     R_50_6_7_3     R_50_6_8_1     R_50_6_8_2     R_50_6_8_3
     R_50_6_9_1     R_50_6_9_2     R_50_6_9_3     R_50_7_0_1     R_50_7_0_2     R_50_7_0_3    R_50_7_10_1    R_50_7_10_2
    R_50_7_10_3    R_50_7_11_1    R_50_7_11_2    R_50_7_11_3    R_50_7_12_1    R_50_7_12_2    R_50_7_12_3    R_50_7_13_1
    R_50_7_13_2    R_50_7_13_3    R_50_7_14_1    R_50_7_14_2    R_50_7_14_3    R_50_7_15_2    R_50_7_15_3     R_50_7_1_1
     R_50_7_1_2     R_50_7_1_3     R_50_7_2_1     R_50_7_2_2     R_50_7_2_3     R_50_7_3_1     R_50_7_3_2     R_50_7_3_3
     R_50_7_4_1     R_50_7_4_2     R_50_7_4_3     R_50_7_5_1     R_50_7_5_2     R_50_7_5_3     R_50_7_6_1     R_50_7_6_2
     R_50_7_6_3     R_50_7_7_1     R_50_7_7_2     R_50_7_7_3     R_50_7_8_1     R_50_7_8_2     R_50_7_8_3     R_50_7_9_1
     R_50_7_9_2     R_50_7_9_3     R_50_8_0_1     R_50_8_0_2     R_50_8_0_3    R_50_8_10_1    R_50_8_10_2    R_50_8_10_3
    R_50_8_11_1    R_50_8_11_2    R_50_8_11_3    R_50_8_12_1    R_50_8_12_2    R_50_8_12_3    R_50_8_13_1    R_50_8_13_2
    R_50_8_13_3    R_50_8_14_1    R_50_8_14_2    R_50_8_14_3    R_50_8_15_2    R_50_8_15_3     R_50_8_1_1     R_50_8_1_2
     R_50_8_1_3     R_50_8_2_1     R_50_8_2_2     R_50_8_2_3     R_50_8_3_1     R_50_8_3_2     R_50_8_3_3     R_50_8_4_1
     R_50_8_4_2     R_50_8_4_3     R_50_8_5_1     R_50_8_5_2     R_50_8_5_3     R_50_8_6_1     R_50_8_6_2     R_50_8_6_3
     R_50_8_7_1     R_50_8_7_2     R_50_8_7_3     R_50_8_8_1     R_50_8_8_2     R_50_8_8_3     R_50_8_9_1     R_50_8_9_2
     R_50_8_9_3     R_50_9_0_1     R_50_9_0_2     R_50_9_0_3    R_50_9_10_1    R_50_9_10_2    R_50_9_10_3    R_50_9_11_1
    R_50_9_11_2    R_50_9_11_3    R_50_9_12_1    R_50_9_12_2    R_50_9_12_3    R_50_9_13_1    R_50_9_13_2    R_50_9_13_3
    R_50_9_14_1    R_50_9_14_2    R_50_9_14_3    R_50_9_15_2    R_50_9_15_3     R_50_9_1_1     R_50_9_1_2     R_50_9_1_3
     R_50_9_2_1     R_50_9_2_2     R_50_9_2_3     R_50_9_3_1     R_50_9_3_2     R_50_9_3_3     R_50_9_4_1     R_50_9_4_2
     R_50_9_4_3     R_50_9_5_1     R_50_9_5_2     R_50_9_5_3     R_50_9_6_1     R_50_9_6_2     R_50_9_6_3     R_50_9_7_1
     R_50_9_7_2     R_50_9_7_3     R_50_9_8_1     R_50_9_8_2     R_50_9_8_3     R_50_9_9_1     R_50_9_9_2     R_50_9_9_3
     R_51_0_0_1     R_51_0_0_2     R_51_0_0_3    R_51_0_10_1    R_51_0_10_2    R_51_0_10_3    R_51_0_11_1    R_51_0_11_2
    R_51_0_11_3    R_51_0_12_1    R_51_0_12_2    R_51_0_12_3    R_51_0_13_1    R_51_0_13_2    R_51_0_13_3    R_51_0_14_1
    R_51_0_14_2    R_51_0_14_3    R_51_0_15_2    R_51_0_15_3     R_51_0_1_1     R_51_0_1_2     R_51_0_1_3     R_51_0_2_1
     R_51_0_2_2     R_51_0_2_3     R_51_0_3_1     R_51_0_3_2     R_51_0_3_3     R_51_0_4_1     R_51_0_4_2     R_51_0_4_3
     R_51_0_5_1     R_51_0_5_2     R_51_0_5_3     R_51_0_6_1     R_51_0_6_2     R_51_0_6_3     R_51_0_7_1     R_51_0_7_2
     R_51_0_7_3     R_51_0_8_1     R_51_0_8_2     R_51_0_8_3     R_51_0_9_1     R_51_0_9_2     R_51_0_9_3    R_51_10_0_1
    R_51_10_0_2    R_51_10_0_3   R_51_10_10_1   R_51_10_10_2   R_51_10_10_3   R_51_10_11_1   R_51_10_11_2   R_51_10_11_3
   R_51_10_12_1   R_51_10_12_2   R_51_10_12_3   R_51_10_13_1   R_51_10_13_2   R_51_10_13_3   R_51_10_14_1   R_51_10_14_2
   R_51_10_14_3   R_51_10_15_2   R_51_10_15_3    R_51_10_1_1    R_51_10_1_2    R_51_10_1_3    R_51_10_2_1    R_51_10_2_2
    R_51_10_2_3    R_51_10_3_1    R_51_10_3_2    R_51_10_3_3    R_51_10_4_1    R_51_10_4_2    R_51_10_4_3    R_51_10_5_1
    R_51_10_5_2    R_51_10_5_3    R_51_10_6_1    R_51_10_6_2    R_51_10_6_3    R_51_10_7_1    R_51_10_7_2    R_51_10_7_3
    R_51_10_8_1    R_51_10_8_2    R_51_10_8_3    R_51_10_9_1    R_51_10_9_2    R_51_10_9_3    R_51_11_0_1    R_51_11_0_2
    R_51_11_0_3   R_51_11_10_1   R_51_11_10_2   R_51_11_10_3   R_51_11_11_1   R_51_11_11_2   R_51_11_11_3   R_51_11_12_1
   R_51_11_12_2   R_51_11_12_3   R_51_11_13_1   R_51_11_13_2   R_51_11_13_3   R_51_11_14_1   R_51_11_14_2   R_51_11_14_3
   R_51_11_15_2   R_51_11_15_3    R_51_11_1_1    R_51_11_1_2    R_51_11_1_3    R_51_11_2_1    R_51_11_2_2    R_51_11_2_3
    R_51_11_3_1    R_51_11_3_2    R_51_11_3_3    R_51_11_4_1    R_51_11_4_2    R_51_11_4_3    R_51_11_5_1    R_51_11_5_2
    R_51_11_5_3    R_51_11_6_1    R_51_11_6_2    R_51_11_6_3    R_51_11_7_1    R_51_11_7_2    R_51_11_7_3    R_51_11_8_1
    R_51_11_8_2    R_51_11_8_3    R_51_11_9_1    R_51_11_9_2    R_51_11_9_3    R_51_12_0_1    R_51_12_0_2    R_51_12_0_3
   R_51_12_10_1   R_51_12_10_2   R_51_12_10_3   R_51_12_11_1   R_51_12_11_2   R_51_12_11_3   R_51_12_12_1   R_51_12_12_2
   R_51_12_12_3   R_51_12_13_1   R_51_12_13_2   R_51_12_13_3   R_51_12_14_1   R_51_12_14_2   R_51_12_14_3   R_51_12_15_2
   R_51_12_15_3    R_51_12_1_1    R_51_12_1_2    R_51_12_1_3    R_51_12_2_1    R_51_12_2_2    R_51_12_2_3    R_51_12_3_1
    R_51_12_3_2    R_51_12_3_3    R_51_12_4_1    R_51_12_4_2    R_51_12_4_3    R_51_12_5_1    R_51_12_5_2    R_51_12_5_3
    R_51_12_6_1    R_51_12_6_2    R_51_12_6_3    R_51_12_7_1    R_51_12_7_2    R_51_12_7_3    R_51_12_8_1    R_51_12_8_2
    R_51_12_8_3    R_51_12_9_1    R_51_12_9_2    R_51_12_9_3    R_51_13_0_1    R_51_13_0_2    R_51_13_0_3   R_51_13_10_1
   R_51_13_10_2   R_51_13_10_3   R_51_13_11_1   R_51_13_11_2   R_51_13_11_3   R_51_13_12_1   R_51_13_12_2   R_51_13_12_3
   R_51_13_13_1   R_51_13_13_2   R_51_13_13_3   R_51_13_14_1   R_51_13_14_2   R_51_13_14_3   R_51_13_15_2   R_51_13_15_3
    R_51_13_1_1    R_51_13_1_2    R_51_13_1_3    R_51_13_2_1    R_51_13_2_2    R_51_13_2_3    R_51_13_3_1    R_51_13_3_2
    R_51_13_3_3    R_51_13_4_1    R_51_13_4_2    R_51_13_4_3    R_51_13_5_1    R_51_13_5_2    R_51_13_5_3    R_51_13_6_1
    R_51_13_6_2    R_51_13_6_3    R_51_13_7_1    R_51_13_7_2    R_51_13_7_3    R_51_13_8_1    R_51_13_8_2    R_51_13_8_3
    R_51_13_9_1    R_51_13_9_2    R_51_13_9_3    R_51_14_0_1    R_51_14_0_2    R_51_14_0_3   R_51_14_10_1   R_51_14_10_2
   R_51_14_10_3   R_51_14_11_1   R_51_14_11_2   R_51_14_11_3   R_51_14_12_1   R_51_14_12_2   R_51_14_12_3   R_51_14_13_1
   R_51_14_13_2   R_51_14_13_3   R_51_14_14_1   R_51_14_14_2   R_51_14_14_3   R_51_14_15_2   R_51_14_15_3    R_51_14_1_1
    R_51_14_1_2    R_51_14_1_3    R_51_14_2_1    R_51_14_2_2    R_51_14_2_3    R_51_14_3_1    R_51_14_3_2    R_51_14_3_3
    R_51_14_4_1    R_51_14_4_2    R_51_14_4_3    R_51_14_5_1    R_51_14_5_2    R_51_14_5_3    R_51_14_6_1    R_51_14_6_2
    R_51_14_6_3    R_51_14_7_1    R_51_14_7_2    R_51_14_7_3    R_51_14_8_1    R_51_14_8_2    R_51_14_8_3    R_51_14_9_1
    R_51_14_9_2    R_51_14_9_3    R_51_15_0_1    R_51_15_0_3   R_51_15_10_1   R_51_15_10_3   R_51_15_11_1   R_51_15_11_3
   R_51_15_12_1   R_51_15_12_3   R_51_15_13_1   R_51_15_13_3   R_51_15_14_1   R_51_15_14_3   R_51_15_15_3    R_51_15_1_1
    R_51_15_1_3    R_51_15_2_1    R_51_15_2_3    R_51_15_3_1    R_51_15_3_3    R_51_15_4_1    R_51_15_4_3    R_51_15_5_1
    R_51_15_5_3    R_51_15_6_1    R_51_15_6_3    R_51_15_7_1    R_51_15_7_3    R_51_15_8_1    R_51_15_8_3    R_51_15_9_1
    R_51_15_9_3     R_51_1_0_1     R_51_1_0_2     R_51_1_0_3    R_51_1_10_1    R_51_1_10_2    R_51_1_10_3    R_51_1_11_1
    R_51_1_11_2    R_51_1_11_3    R_51_1_12_1    R_51_1_12_2    R_51_1_12_3    R_51_1_13_1    R_51_1_13_2    R_51_1_13_3
    R_51_1_14_1    R_51_1_14_2    R_51_1_14_3    R_51_1_15_2    R_51_1_15_3     R_51_1_1_1     R_51_1_1_2     R_51_1_1_3
     R_51_1_2_1     R_51_1_2_2     R_51_1_2_3     R_51_1_3_1     R_51_1_3_2     R_51_1_3_3     R_51_1_4_1     R_51_1_4_2
     R_51_1_4_3     R_51_1_5_1     R_51_1_5_2     R_51_1_5_3     R_51_1_6_1     R_51_1_6_2     R_51_1_6_3     R_51_1_7_1
     R_51_1_7_2     R_51_1_7_3     R_51_1_8_1     R_51_1_8_2     R_51_1_8_3     R_51_1_9_1     R_51_1_9_2     R_51_1_9_3
     R_51_2_0_1     R_51_2_0_2     R_51_2_0_3    R_51_2_10_1    R_51_2_10_2    R_51_2_10_3    R_51_2_11_1    R_51_2_11_2
    R_51_2_11_3    R_51_2_12_1    R_51_2_12_2    R_51_2_12_3    R_51_2_13_1    R_51_2_13_2    R_51_2_13_3    R_51_2_14_1
    R_51_2_14_2    R_51_2_14_3    R_51_2_15_2    R_51_2_15_3     R_51_2_1_1     R_51_2_1_2     R_51_2_1_3     R_51_2_2_1
     R_51_2_2_2     R_51_2_2_3     R_51_2_3_1     R_51_2_3_2     R_51_2_3_3     R_51_2_4_1     R_51_2_4_2     R_51_2_4_3
     R_51_2_5_1     R_51_2_5_2     R_51_2_5_3     R_51_2_6_1     R_51_2_6_2     R_51_2_6_3     R_51_2_7_1     R_51_2_7_2
     R_51_2_7_3     R_51_2_8_1     R_51_2_8_2     R_51_2_8_3     R_51_2_9_1     R_51_2_9_2     R_51_2_9_3     R_51_3_0_1
     R_51_3_0_2     R_51_3_0_3    R_51_3_10_1    R_51_3_10_2    R_51_3_10_3    R_51_3_11_1    R_51_3_11_2    R_51_3_11_3
    R_51_3_12_1    R_51_3_12_2    R_51_3_12_3    R_51_3_13_1    R_51_3_13_2    R_51_3_13_3    R_51_3_14_1    R_51_3_14_2
    R_51_3_14_3    R_51_3_15_2    R_51_3_15_3     R_51_3_1_1     R_51_3_1_2     R_51_3_1_3     R_51_3_2_1     R_51_3_2_2
     R_51_3_2_3     R_51_3_3_1     R_51_3_3_2     R_51_3_3_3     R_51_3_4_1     R_51_3_4_2     R_51_3_4_3     R_51_3_5_1
     R_51_3_5_2     R_51_3_5_3     R_51_3_6_1     R_51_3_6_2     R_51_3_6_3     R_51_3_7_1     R_51_3_7_2     R_51_3_7_3
     R_51_3_8_1     R_51_3_8_2     R_51_3_8_3     R_51_3_9_1     R_51_3_9_2     R_51_3_9_3     R_51_4_0_1     R_51_4_0_2
     R_51_4_0_3    R_51_4_10_1    R_51_4_10_2    R_51_4_10_3    R_51_4_11_1    R_51_4_11_2    R_51_4_11_3    R_51_4_12_1
    R_51_4_12_2    R_51_4_12_3    R_51_4_13_1    R_51_4_13_2    R_51_4_13_3    R_51_4_14_1    R_51_4_14_2    R_51_4_14_3
    R_51_4_15_2    R_51_4_15_3     R_51_4_1_1     R_51_4_1_2     R_51_4_1_3     R_51_4_2_1     R_51_4_2_2     R_51_4_2_3
     R_51_4_3_1     R_51_4_3_2     R_51_4_3_3     R_51_4_4_1     R_51_4_4_2     R_51_4_4_3     R_51_4_5_1     R_51_4_5_2
     R_51_4_5_3     R_51_4_6_1     R_51_4_6_2     R_51_4_6_3     R_51_4_7_1     R_51_4_7_2     R_51_4_7_3     R_51_4_8_1
     R_51_4_8_2     R_51_4_8_3     R_51_4_9_1     R_51_4_9_2     R_51_4_9_3     R_51_5_0_1     R_51_5_0_2     R_51_5_0_3
    R_51_5_10_1    R_51_5_10_2    R_51_5_10_3    R_51_5_11_1    R_51_5_11_2    R_51_5_11_3    R_51_5_12_1    R_51_5_12_2
    R_51_5_12_3    R_51_5_13_1    R_51_5_13_2    R_51_5_13_3    R_51_5_14_1    R_51_5_14_2    R_51_5_14_3    R_51_5_15_2
    R_51_5_15_3     R_51_5_1_1     R_51_5_1_2     R_51_5_1_3     R_51_5_2_1     R_51_5_2_2     R_51_5_2_3     R_51_5_3_1
     R_51_5_3_2     R_51_5_3_3     R_51_5_4_1     R_51_5_4_2     R_51_5_4_3     R_51_5_5_1     R_51_5_5_2     R_51_5_5_3
     R_51_5_6_1     R_51_5_6_2     R_51_5_6_3     R_51_5_7_1     R_51_5_7_2     R_51_5_7_3     R_51_5_8_1     R_51_5_8_2
     R_51_5_8_3     R_51_5_9_1     R_51_5_9_2     R_51_5_9_3     R_51_6_0_1     R_51_6_0_2     R_51_6_0_3    R_51_6_10_1
    R_51_6_10_2    R_51_6_10_3    R_51_6_11_1    R_51_6_11_2    R_51_6_11_3    R_51_6_12_1    R_51_6_12_2    R_51_6_12_3
    R_51_6_13_1    R_51_6_13_2    R_51_6_13_3    R_51_6_14_1    R_51_6_14_2    R_51_6_14_3    R_51_6_15_2    R_51_6_15_3
     R_51_6_1_1     R_51_6_1_2     R_51_6_1_3     R_51_6_2_1     R_51_6_2_2     R_51_6_2_3     R_51_6_3_1     R_51_6_3_2
     R_51_6_3_3     R_51_6_4_1     R_51_6_4_2     R_51_6_4_3     R_51_6_5_1     R_51_6_5_2     R_51_6_5_3     R_51_6_6_1
     R_51_6_6_2     R_51_6_6_3     R_51_6_7_1     R_51_6_7_2     R_51_6_7_3     R_51_6_8_1     R_51_6_8_2     R_51_6_8_3
     R_51_6_9_1     R_51_6_9_2     R_51_6_9_3     R_51_7_0_1     R_51_7_0_2     R_51_7_0_3    R_51_7_10_1    R_51_7_10_2
    R_51_7_10_3    R_51_7_11_1    R_51_7_11_2    R_51_7_11_3    R_51_7_12_1    R_51_7_12_2    R_51_7_12_3    R_51_7_13_1
    R_51_7_13_2    R_51_7_13_3    R_51_7_14_1    R_51_7_14_2    R_51_7_14_3    R_51_7_15_2    R_51_7_15_3     R_51_7_1_1
     R_51_7_1_2     R_51_7_1_3     R_51_7_2_1     R_51_7_2_2     R_51_7_2_3     R_51_7_3_1     R_51_7_3_2     R_51_7_3_3
     R_51_7_4_1     R_51_7_4_2     R_51_7_4_3     R_51_7_5_1     R_51_7_5_2     R_51_7_5_3     R_51_7_6_1     R_51_7_6_2
     R_51_7_6_3     R_51_7_7_1     R_51_7_7_2     R_51_7_7_3     R_51_7_8_1     R_51_7_8_2     R_51_7_8_3     R_51_7_9_1
     R_51_7_9_2     R_51_7_9_3     R_51_8_0_1     R_51_8_0_2     R_51_8_0_3    R_51_8_10_1    R_51_8_10_2    R_51_8_10_3
    R_51_8_11_1    R_51_8_11_2    R_51_8_11_3    R_51_8_12_1    R_51_8_12_2    R_51_8_12_3    R_51_8_13_1    R_51_8_13_2
    R_51_8_13_3    R_51_8_14_1    R_51_8_14_2    R_51_8_14_3    R_51_8_15_2    R_51_8_15_3     R_51_8_1_1     R_51_8_1_2
     R_51_8_1_3     R_51_8_2_1     R_51_8_2_2     R_51_8_2_3     R_51_8_3_1     R_51_8_3_2     R_51_8_3_3     R_51_8_4_1
     R_51_8_4_2     R_51_8_4_3     R_51_8_5_1     R_51_8_5_2     R_51_8_5_3     R_51_8_6_1     R_51_8_6_2     R_51_8_6_3
     R_51_8_7_1     R_51_8_7_2     R_51_8_7_3     R_51_8_8_1     R_51_8_8_2     R_51_8_8_3     R_51_8_9_1     R_51_8_9_2
     R_51_8_9_3     R_51_9_0_1     R_51_9_0_2     R_51_9_0_3    R_51_9_10_1    R_51_9_10_2    R_51_9_10_3    R_51_9_11_1
    R_51_9_11_2    R_51_9_11_3    R_51_9_12_1    R_51_9_12_2    R_51_9_12_3    R_51_9_13_1    R_51_9_13_2    R_51_9_13_3
    R_51_9_14_1    R_51_9_14_2    R_51_9_14_3    R_51_9_15_2    R_51_9_15_3     R_51_9_1_1     R_51_9_1_2     R_51_9_1_3
     R_51_9_2_1     R_51_9_2_2     R_51_9_2_3     R_51_9_3_1     R_51_9_3_2     R_51_9_3_3     R_51_9_4_1     R_51_9_4_2
     R_51_9_4_3     R_51_9_5_1     R_51_9_5_2     R_51_9_5_3     R_51_9_6_1     R_51_9_6_2     R_51_9_6_3     R_51_9_7_1
     R_51_9_7_2     R_51_9_7_3     R_51_9_8_1     R_51_9_8_2     R_51_9_8_3     R_51_9_9_1     R_51_9_9_2     R_51_9_9_3
R_HS_AMB_IN_BOTR_HS_AMB_IN_LEFTR_HS_AMB_IN_RIGHTR_HS_AMB_IN_TOPR_HS_AMB_OUT_BOTR_HS_AMB_OUT_LEFTR_HS_AMB_OUT_RIGHTR_HS_AMB_OUT_TOP
    R_HS_HS_BOT   R_HS_HS_LEFT  R_HS_HS_RIGHT    R_HS_HS_TOP R_SP_HS_IN_BOTR_SP_HS_IN_LEFTR_SP_HS_IN_RIGHT R_SP_HS_IN_TOP
   RHS_51_0_0_1   RHS_51_0_0_2  RHS_51_0_10_2  RHS_51_0_11_2  RHS_51_0_12_2  RHS_51_0_13_2  RHS_51_0_14_2  RHS_51_0_15_1
  RHS_51_0_15_2   RHS_51_0_1_2   RHS_51_0_2_2   RHS_51_0_3_2   RHS_51_0_4_2   RHS_51_0_5_2   RHS_51_0_6_2   RHS_51_0_7_2
   RHS_51_0_8_2   RHS_51_0_9_2  RHS_51_10_0_1 RHS_51_10_15_1  RHS_51_11_0_1 RHS_51_11_15_1  RHS_51_12_0_1 RHS_51_12_15_1
  RHS_51_13_0_1 RHS_51_13_15_1  RHS_51_14_0_1 RHS_51_14_15_1  RHS_51_15_0_1  RHS_51_15_0_2 RHS_51_15_10_2 RHS_51_15_11_2
 RHS_51_15_12_2 RHS_51_15_13_2 RHS_51_15_14_2 RHS_51_15_15_1 RHS_51_15_15_2  RHS_51_15_1_2  RHS_51_15_2_2  RHS_51_15_3_2
  RHS_51_15_4_2  RHS_51_15_5_2  RHS_51_15_6_2  RHS_51_15_7_2  RHS_51_15_8_2  RHS_51_15_9_2   RHS_51_1_0_1  RHS_51_1_15_1
   RHS_51_2_0_1  RHS_51_2_15_1   RHS_51_3_0_1  RHS_51_3_15_1   RHS_51_4_0_1  RHS_51_4_15_1   RHS_51_5_0_1  RHS_51_5_15_1
   RHS_51_6_0_1  RHS_51_6_15_1   RHS_51_7_0_1  RHS_51_7_15_1   RHS_51_8_0_1  RHS_51_8_15_1   RHS_51_9_0_1  RHS_51_9_15_1
   RSP_50_0_0_1   RSP_50_0_0_2  RSP_50_0_10_2  RSP_50_0_11_2  RSP_50_0_12_2  RSP_50_0_13_2  RSP_50_0_14_2  RSP_50_0_15_1
  RSP_50_0_15_2   RSP_50_0_1_2   RSP_50_0_2_2   RSP_50_0_3_2   RSP_50_0_4_2   RSP_50_0_5_2   RSP_50_0_6_2   RSP_50_0_7_2
   RSP_50_0_8_2   RSP_50_0_9_2  RSP_50_10_0_1 RSP_50_10_15_1  RSP_50_11_0_1 RSP_50_11_15_1  RSP_50_12_0_1 RSP_50_12_15_1
  RSP_50_13_0_1 RSP_50_13_15_1  RSP_50_14_0_1 RSP_50_14_15_1  RSP_50_15_0_1  RSP_50_15_0_2 RSP_50_15_10_2 RSP_50_15_11_2
 RSP_50_15_12_2 RSP_50_15_13_2 RSP_50_15_14_2 RSP_50_15_15_1 RSP_50_15_15_2  RSP_50_15_1_2  RSP_50_15_2_2  RSP_50_15_3_2
  RSP_50_15_4_2  RSP_50_15_5_2  RSP_50_15_6_2  RSP_50_15_7_2  RSP_50_15_8_2  RSP_50_15_9_2   RSP_50_1_0_1  RSP_50_1_15_1
   RSP_50_2_0_1  RSP_50_2_15_1   RSP_50_3_0_1  RSP_50_3_15_1   RSP_50_4_0_1  RSP_50_4_15_1   RSP_50_5_0_1  RSP_50_5_15_1
   RSP_50_6_0_1  RSP_50_6_15_1   RSP_50_7_0_1  RSP_50_7_15_1   RSP_50_8_0_1  RSP_50_8_15_1   RSP_50_9_0_1  RSP_50_9_15_1
         model R level 1 (Resistor)R level 1 (Resistor)R level 1 (Resistor)R level 1 (Resistor)R level 1 (Resistor)R level 1 (Resistor)R level 1 (Resistor)
R level 1 (Resistor)R level 1 (Resistor)R level 1 (Resistor)R level 1 (Resistor)R level 1 (Resistor)R level 1 (Resistor)R level 1 (Resistor)R level 1 (Resistor)
R level 1 (Resistor)R level 1 (Resistor)R level 1 (Resistor)R level 1 (Resistor)R level 1 (Resistor)R level 1 (Resistor)R level 1 (Resistor)R level 1 (Resistor)
R level 1 (Resistor)R level 1 (Resistor)R level 1 (Resistor)R level 1 (Resistor)R level 1 (Resistor)R level 1 (Resistor)R level 1 (Resistor)R level 1 (Resistor)
R level 1 (Resistor)R level 1 (Resistor)R level 1 (Resistor)R level 1 (Resistor)R level 1 (Resistor)R level 1 (Resistor)R level 1 (Resistor)R level 1 (Resistor)
R level 1 (Resistor)R level 1 (Resistor)R level 1 (Resistor)R level 1 (Resistor)R level 1 (Resistor)R level 1 (Resistor)R level 1 (Resistor)R level 1 (Resistor)
R level 1 (Resistor)R level 1 (Resistor)R level 1 (Resistor)R level 1 (Resistor)R level 1 (Resistor)R level 1 (Resistor)R level 1 (Resistor)R level 1 (Resistor)
R level 1 (Resistor)R level 1 (Resistor)R level 1 (Resistor)R level 1 (Resistor)R level 1 (Resistor)R level 1 (Resistor)R level 1 (Resistor)R level 1 (Resistor)
R level 1 (Resistor)R level 1 (Resistor)R level 1 (Resistor)R level 1 (Resistor)R level 1 (Resistor)R level 1 (Resistor)R level 1 (Resistor)R level 1 (Resistor)
R level 1 (Resistor)R level 1 (Resistor)R level 1 (Resistor)R level 1 (Resistor)R level 1 (Resistor)R level 1 (Resistor)R level 1 (Resistor)R level 1 (Resistor)
R level 1 (Resistor)R level 1 (Resistor)R level 1 (Resistor)R level 1 (Resistor)R level 1 (Resistor)R level 1 (Resistor)R level 1 (Resistor)R level 1 (Resistor)
R level 1 (Resistor)R level 1 (Resistor)R level 1 (Resistor)R level 1 (Resistor)R level 1 (Resistor)R level 1 (Resistor)R level 1 (Resistor)R level 1 (Resistor)
R level 1 (Resistor)R level 1 (Resistor)R level 1 (Resistor)R level 1 (Resistor)R level 1 (Resistor)R level 1 (Resistor)R level 1 (Resistor)R level 1 (Resistor)
R level 1 (Resistor)R level 1 (Resistor)R level 1 (Resistor)R level 1 (Resistor)R level 1 (Resistor)R level 1 (Resistor)R level 1 (Resistor)R level 1 (Resistor)
R level 1 (Resistor)R level 1 (Resistor)R level 1 (Resistor)R level 1 (Resistor)R level 1 (Resistor)R level 1 (Resistor)R level 1 (Resistor)R level 1 (Resistor)
R level 1 (Resistor)R level 1 (Resistor)R level 1 (Resistor)R level 1 (Resistor)R level 1 (Resistor)R level 1 (Resistor)R level 1 (Resistor)R level 1 (Resistor)
R level 1 (Resistor)R level 1 (Resistor)R level 1 (Resistor)R level 1 (Resistor)R level 1 (Resistor)R level 1 (Resistor)R level 1 (Resistor)R level 1 (Resistor)
R level 1 (Resistor)R level 1 (Resistor)R level 1 (Resistor)R level 1 (Resistor)R level 1 (Resistor)R level 1 (Resistor)R level 1 (Resistor)R level 1 (Resistor)
R level 1 (Resistor)R level 1 (Resistor)R level 1 (Resistor)R level 1 (Resistor)R level 1 (Resistor)R level 1 (Resistor)R level 1 (Resistor)R level 1 (Resistor)
R level 1 (Resistor)R level 1 (Resistor)R level 1 (Resistor)R level 1 (Resistor)R level 1 (Resistor)R level 1 (Resistor)R level 1 (Resistor)R level 1 (Resistor)
R level 1 (Resistor)R level 1 (Resistor)R level 1 (Resistor)R level 1 (Resistor)R level 1 (Resistor)R level 1 (Resistor)R level 1 (Resistor)R level 1 (Resistor)
R level 1 (Resistor)R level 1 (Resistor)R level 1 (Resistor)R level 1 (Resistor)R level 1 (Resistor)R level 1 (Resistor)R level 1 (Resistor)R level 1 (Resistor)
R level 1 (Resistor)R level 1 (Resistor)R level 1 (Resistor)R level 1 (Resistor)R level 1 (Resistor)R level 1 (Resistor)R level 1 (Resistor)R level 1 (Resistor)
R level 1 (Resistor)R level 1 (Resistor)R level 1 (Resistor)R level 1 (Resistor)R level 1 (Resistor)R level 1 (Resistor)R level 1 (Resistor)R level 1 (Resistor)
R level 1 (Resistor)R level 1 (Resistor)R level 1 (Resistor)R level 1 (Resistor)R level 1 (Resistor)R level 1 (Resistor)R level 1 (Resistor)R level 1 (Resistor)
R level 1 (Resistor)R level 1 (Resistor)R level 1 (Resistor)R level 1 (Resistor)R level 1 (Resistor)R level 1 (Resistor)R level 1 (Resistor)R level 1 (Resistor)
R level 1 (Resistor)R level 1 (Resistor)R level 1 (Resistor)R level 1 (Resistor)R level 1 (Resistor)R level 1 (Resistor)R level 1 (Resistor)R level 1 (Resistor)
R level 1 (Resistor)R level 1 (Resistor)R level 1 (Resistor)R level 1 (Resistor)R level 1 (Resistor)R level 1 (Resistor)R level 1 (Resistor)R level 1 (Resistor)
R level 1 (Resistor)R level 1 (Resistor)R level 1 (Resistor)R level 1 (Resistor)R level 1 (Resistor)R level 1 (Resistor)R level 1 (Resistor)R level 1 (Resistor)
R level 1 (Resistor)R level 1 (Resistor)R level 1 (Resistor)R level 1 (Resistor)R level 1 (Resistor)R level 1 (Resistor)R level 1 (Resistor)R level 1 (Resistor)
R level 1 (Resistor)R level 1 (Resistor)R level 1 (Resistor)R level 1 (Resistor)R level 1 (Resistor)R level 1 (Resistor)R level 1 (Resistor)R level 1 (Resistor)
R level 1 (Resistor)R level 1 (Resistor)R level 1 (Resistor)R level 1 (Resistor)R level 1 (Resistor)R level 1 (Resistor)R level 1 (Resistor)R level 1 (Resistor)
R level 1 (Resistor)R level 1 (Resistor)R level 1 (Resistor)R level 1 (Resistor)R level 1 (Resistor)R level 1 (Resistor)R level 1 (Resistor)R level 1 (Resistor)
R level 1 (Resistor)R level 1 (Resistor)R level 1 (Resistor)R level 1 (Resistor)R level 1 (Resistor)R level 1 (Resistor)R level 1 (Resistor)R level 1 (Resistor)
R level 1 (Resistor)R level 1 (Resistor)R level 1 (Resistor)R level 1 (Resistor)R level 1 (Resistor)R level 1 (Resistor)R level 1 (Resistor)R level 1 (Resistor)
R level 1 (Resistor)R level 1 (Resistor)R level 1 (Resistor)R level 1 (Resistor)R level 1 (Resistor)R level 1 (Resistor)R level 1 (Resistor)R level 1 (Resistor)
R level 1 (Resistor)R level 1 (Resistor)R level 1 (Resistor)R level 1 (Resistor)R level 1 (Resistor)R level 1 (Resistor)R level 1 (Resistor)R level 1 (Resistor)
[...]
              0              0              0              0              0              0              0              0
              0              0              0              0              0              0              0              0
              0              0              0              0              0              0              0              0
              0              0              0              0              0              0              0              0
              0              0              0              0              0              0              0              0
              0              0              0              0              0              0              0              0
              0              0              0              0              0              0              0              0
              0              0              0              0              0              0              0              0
              0              0              0              0              0              0              0              0
              0              0              0              0              0              0              0              0
              0              0              0              0              0              0              0              0
              0              0              0              0              0              0              0              0
              0              0              0              0              0              0              0              0
              0              0              0              0              0              0              0              0
              0              0              0              0              0              0              0              0
              0              0              0              0              0              0              0              0
              0              0              0              0              0              0              0              0
              0              0              0              0              0              0              0              0
              0              0              0              0              0              0              0              0
              0              0              0              0              0              0              0              0
              0              0              0              0              0              0              0              0
              0              0              0              0              0              0              0              0
              0              0              0              0              0              0              0              0
              0              0              0              0              0              0              0              0
              0              0              0              0              0              0              0              0
              0              0              0              0              0              0              0              0
              0              0              0              0              0              0              0              0
              0              0              0              0              0              0              0              0
              0              0              0              0              0              0              0              0
              0              0              0              0              0              0              0              0
              0              0              0              0              0              0              0              0
              0              0              0              0              0              0              0              0
              0              0              0              0              0              0              0              0
              0              0              0              0              0              0              0              0
              0              0              0              0              0              0              0              0
              0              0              0              0              0              0              0              0
              0              0              0              0              0              0              0              0
              0              0              0              0              0              0              0              0
              0              0              0              0              0              0              0              0
              0              0              0              0              0              0              0              0
              0              0              0              0              0              0              0              0
              0              0              0              0              0              0              0              0
              0              0              0              0              0              0              0              0
              0              0              0              0              0              0              0              0
              0              0              0              0              0              0              0              0
              0              0              0              0              0              0              0              0
              0              0              0              0              0              0              0              0
              0              0              0              0              0              0              0              0
              0              0              0              0              0              0              0              0
              0              0              0              0              0              0              0              0
              0              0              0              0              0              0              0              0
              0              0              0              0              0              0              0              0
              0              0              0              0              0              0              0              0
              0              0              0              0              0              0              0              0
              0              0              0              0              0              0              0              0
              0              0              0              0              0              0              0              0
              0              0              0              0              0              0              0              0
              0              0              0              0              0              0              0              0
              0              0              0              0              0              0              0              0
              0              0              0              0              0              0              0              0
              0              0              0              0              0              0              0              0
              0              0              0              0              0              0              0              0
              0              0              0              0              0              0              0              0
              0              0              0              0              0              0              0              0
              0              0              0              0              0              0              0              0
              0              0              0              0              0              0              0              0
              0              0              0              0              0              0              0              0
              0              0              0              0              0              0              0              0
              0              0              0              0              0              0              0              0
              0              0              0              0              0              0              0              0
              0              0              0              0              0              0              0              0
              0              0              0              0              0              0              0              0
              0              0              0              0              0              0              0              0
              0              0              0              0              0              0              0              0
              0              0              0              0              0              0              0              0
              0              0              0              0              0              0              0              0
              0              0              0              0              0              0              0              0
              0              0              0              0              0              0              0              0
              0              0              0              0              0              0              0              0
              0              0              0              0              0              0              0              0
              0              0              0              0              0              0              0              0
              0              0              0              0              0              0              0              0
              0              0              0              0              0              0              0              0
              0              0              0              0              0              0              0              0
              0              0              0              0              0              0              0              0
              0              0              0              0              0              0              0              0
              0              0              0              0              0              0              0              0
              0              0              0              0              0              0              0              0
              0              0              0              0              0              0              0              0
              0              0              0              0              0              0              0              0
              0              0              0              0              0              0              0              0
              0              0              0              0              0              0              0              0
              0              0              0              0              0              0              0              0
              0              0              0              0              0              0              0              0
              0              0              0              0              0              0              0              0
              0              0              0              0              0              0              0              0
              0              0              0              0              0              0              0              0
              0              0              0              0              0              0              0              0
              0              0              0              0              0              0              0              0
              0              0              0              0              0              0              0              0
              0              0              0              0              0              0              0              0
              0              0              0              0              0              0              0              0
              0              0              0              0              0              0              0              0
              0              0              0              0              0              0              0              0
              0              0              0              0              0              0              0              0
              0              0              0              0              0              0              0              0
              0              0              0              0              0              0              0              0
              0              0              0              0              0              0              0              0
              0              0              0              0              0              0              0              0
              0              0              0              0              0              0              0              0
              0              0              0              0              0              0              0              0
              0              0              0              0              0              0              0              0
              0              0              0              0              0              0              0              0
              0              0              0              0              0              0              0              0
              0              0              0              0              0              0              0              0
              0              0              0              0              0              0              0              0
              0              0              0              0              0              0              0              0

------------------------------------------------------------

***** Solution Summary *****
	Number Successful Steps Taken:		1
	Number Failed Steps Attempted:		0
	Number Jacobians Evaluated:		3
	Number Iteration Matrix Factorizations:	0
	Number Linear Solves:			3
	Number Failed Linear Solves:		0
	Number Residual Evaluations:		4
	Number Nonlinear Convergence Failures:	0
	Total Residual Load Time:		0.00386405 seconds
	Total Jacobian Load Time:		0.0039773 seconds
	Total Linear Solution Time:		1.73696 seconds


***** Total Simulation Solvers Run Time: 1.92709 seconds
***** Total Elapsed Run Time:            2.45815 seconds
*****
***** End of Xyce(TM) Simulation
*****

Timing summary of processor 0
                 Stats                   Count       CPU Time              Wall Time
---------------------------------------- ----- --------------------- ---------------------
Xyce                                         1        2.378 (100.0%)        2.627 (100.0%)
  Analysis                                   1        1.846 (77.63%)        1.927 (73.35%)
    DC Sweep                                 1        1.733 (72.87%)        1.812 (68.97%)
      Solve                                  1        1.685 (70.85%)        1.750 (66.60%)
        Residual                             4        0.003 ( 0.12%)        0.004 ( 0.15%)
        Jacobian                             3        0.002 ( 0.09%)        0.004 ( 0.15%)
        Linear Solve                         3        1.676 (70.48%)        1.737 (66.11%)
      Successful Step                        1        0.047 ( 1.98%)        0.060 ( 2.30%)
  Netlist Import                             1        0.342 (14.38%)        0.360 (13.69%)
    Parse Context                            1        0.077 ( 3.26%)        0.084 ( 3.18%)
    Distribute Devices                       1        0.185 ( 7.77%)        0.188 ( 7.15%)
    Verify Devices                           1        0.000 (<0.01%)        0.000 (<0.01%)
    Instantiate                              1        0.024 ( 1.00%)        0.024 ( 0.91%)
  Late Initialization                        1        0.165 ( 6.96%)        0.168 ( 6.41%)
    Global Indices                           1        0.038 ( 1.61%)        0.038 ( 1.46%)
  Setup Matrix Structure                     1        0.012 ( 0.49%)        0.012 ( 0.45%)


Timing summary of 8 processors
                                                     CPU Time              CPU Time              CPU Time              Wall Time             Wall Time             Wall Time
                 Stats                   Count   Sum (% of System)     Min (% of System)     Max (% of System)     Sum (% of System)     Min (% of System)     Max (% of System)
---------------------------------------- ----- --------------------- --------------------- --------------------- --------------------- --------------------- ---------------------
Xyce                                         8       19.656 (100.0%)        2.378 (12.10%)        2.471 (12.57%)       21.004 (100.0%)        2.625 (12.50%)        2.628 (12.51%)
  Analysis                                   8       15.254 (77.60%)        1.846 ( 9.39%)        1.920 ( 9.77%)       15.396 (73.30%)        1.924 ( 9.16%)        1.927 ( 9.17%)
    DC Sweep                                 8       14.358 (73.05%)        1.733 ( 8.81%)        1.807 ( 9.19%)       14.481 (68.94%)        1.810 ( 8.62%)        1.812 ( 8.63%)
      Solve                                  8       13.903 (70.73%)        1.685 ( 8.57%)        1.748 ( 8.89%)       13.998 (66.64%)        1.750 ( 8.33%)        1.750 ( 8.33%)
        Residual                            32        0.024 ( 0.12%)        0.002 (<0.01%)        0.004 ( 0.02%)        0.032 ( 0.15%)        0.004 ( 0.02%)        0.004 ( 0.02%)
        Jacobian                            24        0.023 ( 0.11%)        0.002 ( 0.01%)        0.003 ( 0.02%)        0.032 ( 0.15%)        0.004 ( 0.02%)        0.004 ( 0.02%)
        Linear Solve                        24       13.825 (70.34%)        1.676 ( 8.52%)        1.737 ( 8.84%)       13.895 (66.15%)        1.737 ( 8.27%)        1.737 ( 8.27%)
      Successful Step                        8        0.448 ( 2.28%)        0.047 ( 0.24%)        0.059 ( 0.30%)        0.474 ( 2.26%)        0.059 ( 0.28%)        0.060 ( 0.29%)
  Netlist Import                             8        2.792 (14.20%)        0.342 ( 1.74%)        0.352 ( 1.79%)        2.877 (13.70%)        0.360 ( 1.71%)        0.360 ( 1.71%)
    Parse Context                            8        0.661 ( 3.36%)        0.077 ( 0.39%)        0.084 ( 0.43%)        0.669 ( 3.19%)        0.084 ( 0.40%)        0.084 ( 0.40%)
    Distribute Devices                       8        1.490 ( 7.58%)        0.185 ( 0.94%)        0.187 ( 0.95%)        1.497 ( 7.13%)        0.187 ( 0.89%)        0.188 ( 0.89%)
    Verify Devices                           8        0.000 (<0.01%)        0.000 (<0.01%)        0.000 (<0.01%)        0.000 (<0.01%)        0.000 (<0.01%)        0.000 (<0.01%)
    Instantiate                              8        0.194 ( 0.99%)        0.023 ( 0.12%)        0.026 ( 0.13%)        0.199 ( 0.95%)        0.024 ( 0.11%)        0.026 ( 0.12%)
  Late Initialization                        8        1.339 ( 6.81%)        0.165 ( 0.84%)        0.169 ( 0.86%)        1.356 ( 6.46%)        0.168 ( 0.80%)        0.170 ( 0.81%)
    Global Indices                           8        0.312 ( 1.58%)        0.038 ( 0.20%)        0.039 ( 0.20%)        0.312 ( 1.48%)        0.038 ( 0.18%)        0.039 ( 0.19%)
  Setup Matrix Structure                     8        0.091 ( 0.46%)        0.010 ( 0.05%)        0.012 ( 0.06%)        0.094 ( 0.45%)        0.012 ( 0.06%)        0.012 ( 0.06%)

