
*****
***** Welcome to the Xyce(TM) Parallel Electronic Simulator
*****
***** This is version Xyce Release 7.4-opensource
***** Date: Thu Nov 18 21:08:40 EST 2021


***** Executing netlist Intel.cir

***** Reading and parsing netlist...
***** Setting up topology...

***** Device Count Summary ...
       C level 1 (Capacitor)                  200
       I level 1 (Independent Current Source)  96
       R level 1 (Resistor)                   560
       V level 1 (Independent Voltage Source)   1
       ------------------------------------------
       Total Devices                          857
***** Setting up matrix structure...
***** Number of Unknowns = 202
***** Initializing...

***** Beginning DC Operating Point Calculation...

***** Beginning Transient Calculation...

 *** Transient failure history: 
Time        Time      Step   EstErr      Non-Linear Solver      node     node
(sec)       Step     Status  OverTol   Status  Iters   ||F||    index    name
 1.200e-02  3.355e-07  pass  5.350e-03  pass      2  2.410e-09    130    N/A
 1.200e-02  6.711e-07  pass  5.350e-03  pass      2  1.179e-10    135    N/A
 1.200e-02  1.342e-06  pass  5.350e-03  pass      2  1.053e-10    130    N/A
 1.200e-02  2.684e-06  pass  5.350e-03  pass      2  3.113e-10    130    N/A
 1.201e-02  5.369e-06  pass  5.349e-03  pass      2  1.231e-10    130    N/A
 1.201e-02  1.074e-05  pass  5.349e-03  pass      2  5.919e-12    130    N/A
 1.202e-02  2.147e-05  pass  5.348e-03  pass      2  3.784e-12    126    N/A
 1.204e-02  4.295e-05  pass  5.349e-03  pass      2  2.274e-12    130    N/A
 1.209e-02  8.590e-05  pass  5.394e-03  pass      2  7.070e-12    130    N/A
 1.217e-02  1.718e-04  pass  6.040e-03  pass      2  1.315e-12    130    N/A
 1.234e-02  3.436e-04  pass  1.142e-02  pass      2  1.087e-12    130    N/A
 1.269e-02  6.872e-04  pass  3.273e-02  pass      2  3.908e-13    130    N/A
 1.337e-02  1.374e-03  pass  8.484e-02  pass      2  9.948e-14    130    N/A
 1.475e-02  1.374e-03  pass  8.656e-02  pass      2  1.990e-13    130    N/A
 1.612e-02  1.374e-03  pass  3.536e-02  pass      2  1.492e-13    130    N/A
 1.750e-02  2.749e-03  pass  5.036e-02  pass      2  1.492e-13    130    N/A
 2.025e-02  3.754e-03  pass  1.054e-01  pass      2  1.066e-13    130    N/A
 2.400e-02  1.000e-13  pass  1.647e-04  pass      4  9.501e-04    130    N/A
 2.400e-02  2.000e-13  pass  5.909e-04  pass      4  1.379e-03    130    N/A
 2.400e-02  4.000e-13  pass  1.216e-03  pass      4  7.025e-05    172    N/A
 2.400e-02  3.000e-13  pass  1.379e-03  pass      4  3.819e-04    130    N/A
 2.400e-02  8.000e-14  fail  1.379e-03  P:near   21  2.730e-03    130    N/A
 2.400e-02  1.000e-14  pass  1.464e-03  P:s up    4  1.601e-02    130    N/A
 2.400e-02  2.000e-14  fail  1.464e-03  P:near   21  3.424e-03    130    N/A
 2.400e-02  2.500e-15  fail  1.464e-03  F:max s  21  9.502e-02    130    N/A
Time step too small near step number: 60  Exiting transient loop.


***** Solution Summary *****
	Number Successful Steps Taken:		61
	Number Failed Steps Attempted:		4
	Number Jacobians Evaluated:		226
	Number Linear Solves:			226
	Number Failed Linear Solves:		0
	Number Residual Evaluations:		291
	Number Nonlinear Convergence Failures:	4
	Total Residual Load Time:		0.032 seconds
	Total Jacobian Load Time:		0.021 seconds
	Total Linear Solution Time:		0.067 seconds


***** Total Simulation Solvers Run Time: 0.144 seconds
***** Total Elapsed Run Time:            0.247 seconds
*****
***** End of Xyce(TM) Simulation
*****

Timing summary of processor 0
                 Stats                   Count       CPU Time              Wall Time
---------------------------------------- ----- --------------------- ---------------------
Xyce                                         1        0.261 (100.0%)        0.416 (100.0%)
  Analysis                                   1        0.135 (51.62%)        0.144 (34.55%)
    Transient                                1        0.135 (51.59%)        0.144 (34.53%)
      Nonlinear Solve                       65        0.129 (49.34%)        0.134 (32.21%)
        Residual                           291        0.031 (12.01%)        0.033 ( 7.81%)
        Jacobian                           226        0.020 ( 7.80%)        0.021 ( 5.08%)
        Linear Solve                       226        0.065 (24.91%)        0.068 (16.29%)
      Successful DCOP Steps                  1        0.001 ( 0.39%)        0.005 ( 1.11%)
      Successful Step                       60        0.002 ( 0.77%)        0.002 ( 0.51%)
      Failed Steps                           4        0.000 ( 0.07%)        0.000 ( 0.05%)
        Nonlinear Failure                    4        0.000 (<0.01%)        0.000 (<0.01%)
  Netlist Import                             1        0.079 (30.19%)        0.080 (19.15%)
    Parse Context                            1        0.017 ( 6.53%)        0.018 ( 4.22%)
    Distribute Devices                       1        0.055 (21.15%)        0.055 (13.28%)
    Verify Devices                           1        0.000 (<0.01%)        0.000 (<0.01%)
    Instantiate                              1        0.003 ( 1.27%)        0.003 ( 0.80%)
  Late Initialization                        1        0.022 ( 8.52%)        0.022 ( 5.38%)
    Global Indices                           1        0.002 ( 0.62%)        0.002 ( 0.39%)
  Setup Matrix Structure                     1        0.003 ( 1.03%)        0.003 ( 0.66%)


Timing summary of 16 processors
                                                     CPU Time              CPU Time              CPU Time              Wall Time             Wall Time             Wall Time
                 Stats                   Count   Sum (% of System)     Min (% of System)     Max (% of System)     Sum (% of System)     Min (% of System)     Max (% of System)
---------------------------------------- ----- --------------------- --------------------- --------------------- --------------------- --------------------- ---------------------
Xyce                                        16        4.215 (100.0%)        0.248 ( 5.88%)        0.269 ( 6.39%)        6.545 (100.0%)        0.397 ( 6.06%)        0.416 ( 6.36%)
  Analysis                                  16        2.217 (52.61%)        0.127 ( 3.01%)        0.142 ( 3.36%)        2.298 (35.12%)        0.144 ( 2.19%)        0.144 ( 2.20%)
    Transient                               16        2.216 (52.58%)        0.127 ( 3.01%)        0.141 ( 3.36%)        2.297 (35.09%)        0.144 ( 2.19%)        0.144 ( 2.19%)
      Nonlinear Solve                     1040        2.078 (49.31%)        0.118 ( 2.81%)        0.133 ( 3.15%)        2.143 (32.75%)        0.134 ( 2.05%)        0.134 ( 2.05%)
        Residual                          4656        0.514 (12.18%)        0.029 ( 0.68%)        0.033 ( 0.79%)        0.528 ( 8.06%)        0.032 ( 0.49%)        0.034 ( 0.52%)
        Jacobian                          3616        0.336 ( 7.97%)        0.019 ( 0.45%)        0.022 ( 0.53%)        0.347 ( 5.30%)        0.021 ( 0.32%)        0.023 ( 0.34%)
        Linear Solve                      3616        1.045 (24.80%)        0.060 ( 1.43%)        0.067 ( 1.58%)        1.073 (16.39%)        0.066 ( 1.01%)        0.068 ( 1.04%)
      Successful DCOP Steps                 16        0.061 ( 1.44%)        0.001 ( 0.02%)        0.005 ( 0.11%)        0.074 ( 1.13%)        0.005 ( 0.07%)        0.005 ( 0.07%)
      Successful Step                      960        0.028 ( 0.67%)        0.002 ( 0.04%)        0.002 ( 0.05%)        0.029 ( 0.45%)        0.002 ( 0.03%)        0.002 ( 0.03%)
      Failed Steps                          64        0.002 ( 0.04%)        0.000 (<0.01%)        0.000 (<0.01%)        0.002 ( 0.03%)        0.000 (<0.01%)        0.000 (<0.01%)
        Nonlinear Failure                   64        0.000 (<0.01%)        0.000 (<0.01%)        0.000 (<0.01%)        0.000 (<0.01%)        0.000 (<0.01%)        0.000 (<0.01%)
  Netlist Import                            16        1.257 (29.83%)        0.076 ( 1.81%)        0.080 ( 1.89%)        1.274 (19.46%)        0.079 ( 1.21%)        0.080 ( 1.22%)
    Parse Context                           16        0.279 ( 6.62%)        0.017 ( 0.40%)        0.018 ( 0.42%)        0.280 ( 4.28%)        0.017 ( 0.27%)        0.018 ( 0.27%)
    Distribute Devices                      16        0.874 (20.74%)        0.053 ( 1.26%)        0.055 ( 1.31%)        0.884 (13.50%)        0.055 ( 0.84%)        0.055 ( 0.84%)
    Verify Devices                          16        0.000 (<0.01%)        0.000 (<0.01%)        0.000 (<0.01%)        0.000 (<0.01%)        0.000 (<0.01%)        0.000 (<0.01%)
    Instantiate                             16        0.053 ( 1.25%)        0.003 ( 0.08%)        0.003 ( 0.08%)        0.053 ( 0.82%)        0.003 ( 0.05%)        0.004 ( 0.07%)
  Late Initialization                       16        0.346 ( 8.21%)        0.015 ( 0.36%)        0.022 ( 0.53%)        0.358 ( 5.47%)        0.022 ( 0.34%)        0.022 ( 0.34%)
    Global Indices                          16        0.026 ( 0.62%)        0.002 ( 0.04%)        0.002 ( 0.04%)        0.027 ( 0.41%)        0.002 ( 0.03%)        0.002 ( 0.03%)
  Setup Matrix Structure                    16        0.040 ( 0.95%)        0.002 ( 0.04%)        0.003 ( 0.06%)        0.043 ( 0.66%)        0.003 ( 0.04%)        0.003 ( 0.04%)

