
*****
***** Welcome to the Xyce(TM) Parallel Electronic Simulator
*****
***** This is version Xyce Release 6.12-opensource
***** Date: Mon Jul 27 19:40:05 EDT 2020


***** Executing netlist RC_steady.cir

***** Reading and parsing netlist...
***** Setting up topology...

***** Device Count Summary ...
       I level 1 (Independent Current Source)  1600
       R level 1 (Resistor)                   12896
       V level 1 (Independent Voltage Source)     1
       --------------------------------------------
       Total Devices                          14497
***** Setting up matrix structure...
***** Number of Unknowns = 4817
***** Initializing...

------------------------------------------------------------
Operating point information:
Number of Resistor models: 1
          name R level 1 (Resistor)
          type                
         level               1
           TNOM             27
           DEFW          1e-05
         NARROW              0
              R              1
            TC1              0
            TCE              0
            TC2              0

            RSH              0

Number of Resistor instances: 3625
          name     R_1_37_11_1    R_1_37_11_2    R_1_37_11_3    R_1_37_12_1    R_1_37_12_2    R_1_37_12_3    R_1_37_13_1
    R_1_37_13_2    R_1_37_13_3    R_1_37_14_1    R_1_37_14_2    R_1_37_14_3    R_1_37_15_1    R_1_37_15_2    R_1_37_15_3
    R_1_37_16_1    R_1_37_16_2    R_1_37_16_3    R_1_37_17_1    R_1_37_17_2    R_1_37_17_3    R_1_37_18_1    R_1_37_18_2
    R_1_37_18_3    R_1_37_19_1    R_1_37_19_2    R_1_37_19_3    R_1_37_20_1    R_1_37_20_2    R_1_37_20_3    R_1_37_21_1
    R_1_37_21_2    R_1_37_21_3    R_1_37_22_1    R_1_37_22_2    R_1_37_22_3    R_1_37_23_1    R_1_37_23_2    R_1_37_23_3
    R_1_37_24_1    R_1_37_24_2    R_1_37_24_3    R_1_37_25_1    R_1_37_25_2    R_1_37_25_3    R_1_37_26_1    R_1_37_26_2
    R_1_37_26_3    R_1_37_27_1    R_1_37_27_2    R_1_37_27_3    R_1_37_28_1    R_1_37_28_2    R_1_37_28_3    R_1_37_29_1
    R_1_37_29_2    R_1_37_29_3    R_1_37_30_1    R_1_37_30_2    R_1_37_30_3    R_1_37_31_1    R_1_37_31_2    R_1_37_31_3
    R_1_37_32_1    R_1_37_32_2    R_1_37_32_3    R_1_37_33_1    R_1_37_33_2    R_1_37_33_3    R_1_37_34_1    R_1_37_34_2
    R_1_37_34_3    R_1_37_35_1    R_1_37_35_2    R_1_37_35_3    R_1_37_36_1    R_1_37_36_2    R_1_37_36_3    R_1_37_37_1
    R_1_37_37_2    R_1_37_37_3    R_1_37_38_1    R_1_37_38_2    R_1_37_38_3    R_1_37_39_2    R_1_37_39_3     R_1_38_0_1
     R_1_38_0_2     R_1_38_0_3    R_1_38_10_1    R_1_38_10_2    R_1_38_10_3    R_1_38_11_1    R_1_38_11_2    R_1_38_11_3
    R_1_38_12_1    R_1_38_12_2    R_1_38_12_3    R_1_38_13_1    R_1_38_13_2    R_1_38_13_3    R_1_38_14_1    R_1_38_14_2
    R_1_38_14_3    R_1_38_15_1    R_1_38_15_2    R_1_38_15_3    R_1_38_16_1    R_1_38_16_2    R_1_38_16_3    R_1_38_17_1
    R_1_38_17_2    R_1_38_17_3    R_1_38_18_1    R_1_38_18_2    R_1_38_18_3    R_1_38_19_1    R_1_38_19_2    R_1_38_19_3
     R_1_38_1_1     R_1_38_1_2     R_1_38_1_3    R_1_38_20_1    R_1_38_20_2    R_1_38_20_3    R_1_38_21_1    R_1_38_21_2
    R_1_38_21_3    R_1_38_22_1    R_1_38_22_2    R_1_38_22_3    R_1_38_23_1    R_1_38_23_2    R_1_38_23_3    R_1_38_24_1
    R_1_38_24_2    R_1_38_24_3    R_1_38_25_1    R_1_38_25_2    R_1_38_25_3    R_1_38_26_1    R_1_38_26_2    R_1_38_26_3
    R_1_38_27_1    R_1_38_27_2    R_1_38_27_3    R_1_38_28_1    R_1_38_28_2    R_1_38_28_3    R_1_38_29_1    R_1_38_29_2
    R_1_38_29_3     R_1_38_2_1     R_1_38_2_2     R_1_38_2_3    R_1_38_30_1    R_1_38_30_2    R_1_38_30_3    R_1_38_31_1
    R_1_38_31_2    R_1_38_31_3    R_1_38_32_1    R_1_38_32_2    R_1_38_32_3    R_1_38_33_1    R_1_38_33_2    R_1_38_33_3
    R_1_38_34_1    R_1_38_34_2    R_1_38_34_3    R_1_38_35_1    R_1_38_35_2    R_1_38_35_3    R_1_38_36_1    R_1_38_36_2
    R_1_38_36_3    R_1_38_37_1    R_1_38_37_2    R_1_38_37_3    R_1_38_38_1    R_1_38_38_2    R_1_38_38_3    R_1_38_39_2
    R_1_38_39_3     R_1_38_3_1     R_1_38_3_2     R_1_38_3_3     R_1_38_4_1     R_1_38_4_2     R_1_38_4_3     R_1_38_5_1
     R_1_38_5_2     R_1_38_5_3     R_1_38_6_1     R_1_38_6_2     R_1_38_6_3     R_1_38_7_1     R_1_38_7_2     R_1_38_7_3
     R_1_38_8_1     R_1_38_8_2     R_1_38_8_3     R_1_38_9_1     R_1_38_9_2     R_1_38_9_3     R_1_39_0_1     R_1_39_0_3
    R_1_39_10_1    R_1_39_10_3    R_1_39_11_1    R_1_39_11_3    R_1_39_12_1    R_1_39_12_3    R_1_39_13_1    R_1_39_13_3
    R_1_39_14_1    R_1_39_14_3    R_1_39_15_1    R_1_39_15_3    R_1_39_16_1    R_1_39_16_3    R_1_39_17_1    R_1_39_17_3
    R_1_39_18_1    R_1_39_18_3    R_1_39_19_1    R_1_39_19_3     R_1_39_1_1     R_1_39_1_3    R_1_39_20_1    R_1_39_20_3
    R_1_39_21_1    R_1_39_21_3    R_1_39_22_1    R_1_39_22_3    R_1_39_23_1    R_1_39_23_3    R_1_39_24_1    R_1_39_24_3
    R_1_39_25_1    R_1_39_25_3    R_1_39_26_1    R_1_39_26_3    R_1_39_27_1    R_1_39_27_3    R_1_39_28_1    R_1_39_28_3
    R_1_39_29_1    R_1_39_29_3     R_1_39_2_1     R_1_39_2_3    R_1_39_30_1    R_1_39_30_3    R_1_39_31_1    R_1_39_31_3
    R_1_39_32_1    R_1_39_32_3    R_1_39_33_1    R_1_39_33_3    R_1_39_34_1    R_1_39_34_3    R_1_39_35_1    R_1_39_35_3
    R_1_39_36_1    R_1_39_36_3    R_1_39_37_1    R_1_39_37_3    R_1_39_38_1    R_1_39_38_3    R_1_39_39_3     R_1_39_3_1
     R_1_39_3_3     R_1_39_4_1     R_1_39_4_3     R_1_39_5_1     R_1_39_5_3     R_1_39_6_1     R_1_39_6_3     R_1_39_7_1
     R_1_39_7_3     R_1_39_8_1     R_1_39_8_3     R_1_39_9_1     R_1_39_9_3      R_2_0_0_1      R_2_0_0_2     R_2_0_10_1
     R_2_0_10_2     R_2_0_11_1     R_2_0_11_2     R_2_0_12_1     R_2_0_12_2     R_2_0_13_1     R_2_0_13_2     R_2_0_14_1
     R_2_0_14_2     R_2_0_15_1     R_2_0_15_2     R_2_0_16_1     R_2_0_16_2     R_2_0_17_1     R_2_0_17_2     R_2_0_18_1
     R_2_0_18_2     R_2_0_19_1     R_2_0_19_2      R_2_0_1_1      R_2_0_1_2     R_2_0_20_1     R_2_0_20_2     R_2_0_21_1
     R_2_0_21_2     R_2_0_22_1     R_2_0_22_2     R_2_0_23_1     R_2_0_23_2     R_2_0_24_1     R_2_0_24_2     R_2_0_25_1
     R_2_0_25_2     R_2_0_26_1     R_2_0_26_2     R_2_0_27_1     R_2_0_27_2     R_2_0_28_1     R_2_0_28_2     R_2_0_29_1
     R_2_0_29_2      R_2_0_2_1      R_2_0_2_2     R_2_0_30_1     R_2_0_30_2     R_2_0_31_1     R_2_0_31_2     R_2_0_32_1
     R_2_0_32_2     R_2_0_33_1     R_2_0_33_2     R_2_0_34_1     R_2_0_34_2     R_2_0_35_1     R_2_0_35_2     R_2_0_36_1
     R_2_0_36_2     R_2_0_37_1     R_2_0_37_2     R_2_0_38_1     R_2_0_38_2     R_2_0_39_2      R_2_0_3_1      R_2_0_3_2
      R_2_0_4_1      R_2_0_4_2      R_2_0_5_1      R_2_0_5_2      R_2_0_6_1      R_2_0_6_2      R_2_0_7_1      R_2_0_7_2
      R_2_0_8_1      R_2_0_8_2      R_2_0_9_1      R_2_0_9_2     R_2_10_0_1     R_2_10_0_2    R_2_10_10_1    R_2_10_10_2
    R_2_10_11_1    R_2_10_11_2    R_2_10_12_1    R_2_10_12_2    R_2_10_13_1    R_2_10_13_2    R_2_10_14_1    R_2_10_14_2
    R_2_10_15_1    R_2_10_15_2    R_2_10_16_1    R_2_10_16_2    R_2_10_17_1    R_2_10_17_2    R_2_10_18_1    R_2_10_18_2
    R_2_10_19_1    R_2_10_19_2     R_2_10_1_1     R_2_10_1_2    R_2_10_20_1    R_2_10_20_2    R_2_10_21_1    R_2_10_21_2
    R_2_10_22_1    R_2_10_22_2    R_2_10_23_1    R_2_10_23_2    R_2_10_24_1    R_2_10_24_2    R_2_10_25_1    R_2_10_25_2
    R_2_10_26_1    R_2_10_26_2    R_2_10_27_1    R_2_10_27_2    R_2_10_28_1    R_2_10_28_2    R_2_10_29_1    R_2_10_29_2
     R_2_10_2_1     R_2_10_2_2    R_2_10_30_1    R_2_10_30_2    R_2_10_31_1    R_2_10_31_2    R_2_10_32_1    R_2_10_32_2
    R_2_10_33_1    R_2_10_33_2    R_2_10_34_1    R_2_10_34_2    R_2_10_35_1    R_2_10_35_2    R_2_10_36_1    R_2_10_36_2
    R_2_10_37_1    R_2_10_37_2    R_2_10_38_1    R_2_10_38_2    R_2_10_39_2     R_2_10_3_1     R_2_10_3_2     R_2_10_4_1
     R_2_10_4_2     R_2_10_5_1     R_2_10_5_2     R_2_10_6_1     R_2_10_6_2     R_2_10_7_1     R_2_10_7_2     R_2_10_8_1
     R_2_10_8_2     R_2_10_9_1     R_2_10_9_2     R_2_11_0_1     R_2_11_0_2    R_2_11_10_1    R_2_11_10_2    R_2_11_11_1
    R_2_11_11_2    R_2_11_12_1    R_2_11_12_2    R_2_11_13_1    R_2_11_13_2    R_2_11_14_1    R_2_11_14_2    R_2_11_15_1
    R_2_11_15_2    R_2_11_16_1    R_2_11_16_2    R_2_11_17_1    R_2_11_17_2    R_2_11_18_1    R_2_11_18_2    R_2_11_19_1
    R_2_11_19_2     R_2_11_1_1     R_2_11_1_2    R_2_11_20_1    R_2_11_20_2    R_2_11_21_1    R_2_11_21_2    R_2_11_22_1
    R_2_11_22_2    R_2_11_23_1    R_2_11_23_2    R_2_11_24_1    R_2_11_24_2    R_2_11_25_1    R_2_11_25_2    R_2_11_26_1
    R_2_11_26_2    R_2_11_27_1    R_2_11_27_2    R_2_11_28_1    R_2_11_28_2    R_2_11_29_1    R_2_11_29_2     R_2_11_2_1
     R_2_11_2_2    R_2_11_30_1    R_2_11_30_2    R_2_11_31_1    R_2_11_31_2    R_2_11_32_1    R_2_11_32_2    R_2_11_33_1
    R_2_11_33_2    R_2_11_34_1    R_2_11_34_2    R_2_11_35_1    R_2_11_35_2    R_2_11_36_1    R_2_11_36_2    R_2_11_37_1
    R_2_11_37_2    R_2_11_38_1    R_2_11_38_2    R_2_11_39_2     R_2_11_3_1     R_2_11_3_2     R_2_11_4_1     R_2_11_4_2
     R_2_11_5_1     R_2_11_5_2     R_2_11_6_1     R_2_11_6_2     R_2_11_7_1     R_2_11_7_2     R_2_11_8_1     R_2_11_8_2
     R_2_11_9_1     R_2_11_9_2     R_2_12_0_1     R_2_12_0_2    R_2_12_10_1    R_2_12_10_2    R_2_12_11_1    R_2_12_11_2
    R_2_12_12_1    R_2_12_12_2    R_2_12_13_1    R_2_12_13_2    R_2_12_14_1    R_2_12_14_2    R_2_12_15_1    R_2_12_15_2
    R_2_12_16_1    R_2_12_16_2    R_2_12_17_1    R_2_12_17_2    R_2_12_18_1    R_2_12_18_2    R_2_12_19_1    R_2_12_19_2
     R_2_12_1_1     R_2_12_1_2    R_2_12_20_1    R_2_12_20_2    R_2_12_21_1    R_2_12_21_2    R_2_12_22_1    R_2_12_22_2
    R_2_12_23_1    R_2_12_23_2    R_2_12_24_1    R_2_12_24_2    R_2_12_25_1    R_2_12_25_2    R_2_12_26_1    R_2_12_26_2
    R_2_12_27_1    R_2_12_27_2    R_2_12_28_1    R_2_12_28_2    R_2_12_29_1    R_2_12_29_2     R_2_12_2_1     R_2_12_2_2
    R_2_12_30_1    R_2_12_30_2    R_2_12_31_1    R_2_12_31_2    R_2_12_32_1    R_2_12_32_2    R_2_12_33_1    R_2_12_33_2
    R_2_12_34_1    R_2_12_34_2    R_2_12_35_1    R_2_12_35_2    R_2_12_36_1    R_2_12_36_2    R_2_12_37_1    R_2_12_37_2
    R_2_12_38_1    R_2_12_38_2    R_2_12_39_2     R_2_12_3_1     R_2_12_3_2     R_2_12_4_1     R_2_12_4_2     R_2_12_5_1
     R_2_12_5_2     R_2_12_6_1     R_2_12_6_2     R_2_12_7_1     R_2_12_7_2     R_2_12_8_1     R_2_12_8_2     R_2_12_9_1
     R_2_12_9_2     R_2_13_0_1     R_2_13_0_2    R_2_13_10_1    R_2_13_10_2    R_2_13_11_1    R_2_13_11_2    R_2_13_12_1
    R_2_13_12_2    R_2_13_13_1    R_2_13_13_2    R_2_13_14_1    R_2_13_14_2    R_2_13_15_1    R_2_13_15_2    R_2_13_16_1
    R_2_13_16_2    R_2_13_17_1    R_2_13_17_2    R_2_13_18_1    R_2_13_18_2    R_2_13_19_1    R_2_13_19_2     R_2_13_1_1
     R_2_13_1_2    R_2_13_20_1    R_2_13_20_2    R_2_13_21_1    R_2_13_21_2    R_2_13_22_1    R_2_13_22_2    R_2_13_23_1
    R_2_13_23_2    R_2_13_24_1    R_2_13_24_2    R_2_13_25_1    R_2_13_25_2    R_2_13_26_1    R_2_13_26_2    R_2_13_27_1
    R_2_13_27_2    R_2_13_28_1    R_2_13_28_2    R_2_13_29_1    R_2_13_29_2     R_2_13_2_1     R_2_13_2_2    R_2_13_30_1
    R_2_13_30_2    R_2_13_31_1    R_2_13_31_2    R_2_13_32_1    R_2_13_32_2    R_2_13_33_1    R_2_13_33_2    R_2_13_34_1
    R_2_13_34_2    R_2_13_35_1    R_2_13_35_2    R_2_13_36_1    R_2_13_36_2    R_2_13_37_1    R_2_13_37_2    R_2_13_38_1
    R_2_13_38_2    R_2_13_39_2     R_2_13_3_1     R_2_13_3_2     R_2_13_4_1     R_2_13_4_2     R_2_13_5_1     R_2_13_5_2
     R_2_13_6_1     R_2_13_6_2     R_2_13_7_1     R_2_13_7_2     R_2_13_8_1     R_2_13_8_2     R_2_13_9_1     R_2_13_9_2
     R_2_14_0_1     R_2_14_0_2    R_2_14_10_1    R_2_14_10_2    R_2_14_11_1    R_2_14_11_2    R_2_14_12_1    R_2_14_12_2
    R_2_14_13_1    R_2_14_13_2    R_2_14_14_1    R_2_14_14_2    R_2_14_15_1    R_2_14_15_2    R_2_14_16_1    R_2_14_16_2
    R_2_14_17_1    R_2_14_17_2    R_2_14_18_1    R_2_14_18_2    R_2_14_19_1    R_2_14_19_2     R_2_14_1_1     R_2_14_1_2
    R_2_14_20_1    R_2_14_20_2    R_2_14_21_1    R_2_14_21_2    R_2_14_22_1    R_2_14_22_2    R_2_14_23_1    R_2_14_23_2
    R_2_14_24_1    R_2_14_24_2    R_2_14_25_1    R_2_14_25_2    R_2_14_26_1    R_2_14_26_2    R_2_14_27_1    R_2_14_27_2
    R_2_14_28_1    R_2_14_28_2    R_2_14_29_1    R_2_14_29_2     R_2_14_2_1     R_2_14_2_2    R_2_14_30_1    R_2_14_30_2
    R_2_14_31_1    R_2_14_31_2    R_2_14_32_1    R_2_14_32_2    R_2_14_33_1    R_2_14_33_2    R_2_14_34_1    R_2_14_34_2
    R_2_14_35_1    R_2_14_35_2    R_2_14_36_1    R_2_14_36_2    R_2_14_37_1    R_2_14_37_2    R_2_14_38_1    R_2_14_38_2
    R_2_14_39_2     R_2_14_3_1     R_2_14_3_2     R_2_14_4_1     R_2_14_4_2     R_2_14_5_1     R_2_14_5_2     R_2_14_6_1
     R_2_14_6_2     R_2_14_7_1     R_2_14_7_2     R_2_14_8_1     R_2_14_8_2     R_2_14_9_1     R_2_14_9_2     R_2_15_0_1
     R_2_15_0_2    R_2_15_10_1    R_2_15_10_2    R_2_15_11_1    R_2_15_11_2    R_2_15_12_1    R_2_15_12_2    R_2_15_13_1
    R_2_15_13_2    R_2_15_14_1    R_2_15_14_2    R_2_15_15_1    R_2_15_15_2    R_2_15_16_1    R_2_15_16_2    R_2_15_17_1
    R_2_15_17_2    R_2_15_18_1    R_2_15_18_2    R_2_15_19_1    R_2_15_19_2     R_2_15_1_1     R_2_15_1_2    R_2_15_20_1
    R_2_15_20_2    R_2_15_21_1    R_2_15_21_2    R_2_15_22_1    R_2_15_22_2    R_2_15_23_1    R_2_15_23_2    R_2_15_24_1
    R_2_15_24_2    R_2_15_25_1    R_2_15_25_2    R_2_15_26_1    R_2_15_26_2    R_2_15_27_1    R_2_15_27_2    R_2_15_28_1
    R_2_15_28_2    R_2_15_29_1    R_2_15_29_2     R_2_15_2_1     R_2_15_2_2    R_2_15_30_1    R_2_15_30_2    R_2_15_31_1
    R_2_15_31_2    R_2_15_32_1    R_2_15_32_2    R_2_15_33_1    R_2_15_33_2    R_2_15_34_1    R_2_15_34_2    R_2_15_35_1
    R_2_15_35_2    R_2_15_36_1    R_2_15_36_2    R_2_15_37_1    R_2_15_37_2    R_2_15_38_1    R_2_15_38_2    R_2_15_39_2
     R_2_15_3_1     R_2_15_3_2     R_2_15_4_1     R_2_15_4_2     R_2_15_5_1     R_2_15_5_2     R_2_15_6_1     R_2_15_6_2
     R_2_15_7_1     R_2_15_7_2     R_2_15_8_1     R_2_15_8_2     R_2_15_9_1     R_2_15_9_2     R_2_16_0_1     R_2_16_0_2
    R_2_16_10_1    R_2_16_10_2    R_2_16_11_1    R_2_16_11_2    R_2_16_12_1    R_2_16_12_2    R_2_16_13_1    R_2_16_13_2
    R_2_16_14_1    R_2_16_14_2    R_2_16_15_1    R_2_16_15_2    R_2_16_16_1    R_2_16_16_2    R_2_16_17_1    R_2_16_17_2
    R_2_16_18_1    R_2_16_18_2    R_2_16_19_1    R_2_16_19_2     R_2_16_1_1     R_2_16_1_2    R_2_16_20_1    R_2_16_20_2
    R_2_16_21_1    R_2_16_21_2    R_2_16_22_1    R_2_16_22_2    R_2_16_23_1    R_2_16_23_2    R_2_16_24_1    R_2_16_24_2
    R_2_16_25_1    R_2_16_25_2    R_2_16_26_1    R_2_16_26_2    R_2_16_27_1    R_2_16_27_2    R_2_16_28_1    R_2_16_28_2
    R_2_16_29_1    R_2_16_29_2     R_2_16_2_1     R_2_16_2_2    R_2_16_30_1    R_2_16_30_2    R_2_16_31_1    R_2_16_31_2
    R_2_16_32_1    R_2_16_32_2    R_2_16_33_1    R_2_16_33_2    R_2_16_34_1    R_2_16_34_2    R_2_16_35_1    R_2_16_35_2
    R_2_16_36_1    R_2_16_36_2    R_2_16_37_1    R_2_16_37_2    R_2_16_38_1    R_2_16_38_2    R_2_16_39_2     R_2_16_3_1
     R_2_16_3_2     R_2_16_4_1     R_2_16_4_2     R_2_16_5_1     R_2_16_5_2     R_2_16_6_1     R_2_16_6_2     R_2_16_7_1
     R_2_16_7_2     R_2_16_8_1     R_2_16_8_2     R_2_16_9_1     R_2_16_9_2     R_2_17_0_1     R_2_17_0_2    R_2_17_10_1
    R_2_17_10_2    R_2_17_11_1    R_2_17_11_2    R_2_17_12_1    R_2_17_12_2    R_2_17_13_1    R_2_17_13_2    R_2_17_14_1
    R_2_17_14_2    R_2_17_15_1    R_2_17_15_2    R_2_17_16_1    R_2_17_16_2    R_2_17_17_1    R_2_17_17_2    R_2_17_18_1
    R_2_17_18_2    R_2_17_19_1    R_2_17_19_2     R_2_17_1_1     R_2_17_1_2    R_2_17_20_1    R_2_17_20_2    R_2_17_21_1
    R_2_17_21_2    R_2_17_22_1    R_2_17_22_2    R_2_17_23_1    R_2_17_23_2    R_2_17_24_1    R_2_17_24_2    R_2_17_25_1
    R_2_17_25_2    R_2_17_26_1    R_2_17_26_2    R_2_17_27_1    R_2_17_27_2    R_2_17_28_1    R_2_17_28_2    R_2_17_29_1
    R_2_17_29_2     R_2_17_2_1     R_2_17_2_2    R_2_17_30_1    R_2_17_30_2    R_2_17_31_1    R_2_17_31_2    R_2_17_32_1
    R_2_17_32_2    R_2_17_33_1    R_2_17_33_2    R_2_17_34_1    R_2_17_34_2    R_2_17_35_1    R_2_17_35_2    R_2_17_36_1
    R_2_17_36_2    R_2_17_37_1    R_2_17_37_2    R_2_17_38_1    R_2_17_38_2    R_2_17_39_2     R_2_17_3_1     R_2_17_3_2
     R_2_17_4_1     R_2_17_4_2     R_2_17_5_1     R_2_17_5_2     R_2_17_6_1     R_2_17_6_2     R_2_17_7_1     R_2_17_7_2
     R_2_17_8_1     R_2_17_8_2     R_2_17_9_1     R_2_17_9_2     R_2_18_0_1     R_2_18_0_2    R_2_18_10_1    R_2_18_10_2
    R_2_18_11_1    R_2_18_11_2    R_2_18_12_1    R_2_18_12_2    R_2_18_13_1    R_2_18_13_2    R_2_18_14_1    R_2_18_14_2
    R_2_18_15_1    R_2_18_15_2    R_2_18_16_1    R_2_18_16_2    R_2_18_17_1    R_2_18_17_2    R_2_18_18_1    R_2_18_18_2
    R_2_18_19_1    R_2_18_19_2     R_2_18_1_1     R_2_18_1_2    R_2_18_20_1    R_2_18_20_2    R_2_18_21_1    R_2_18_21_2
    R_2_18_22_1    R_2_18_22_2    R_2_18_23_1    R_2_18_23_2    R_2_18_24_1    R_2_18_24_2    R_2_18_25_1    R_2_18_25_2
    R_2_18_26_1    R_2_18_26_2    R_2_18_27_1    R_2_18_27_2    R_2_18_28_1    R_2_18_28_2    R_2_18_29_1    R_2_18_29_2
     R_2_18_2_1     R_2_18_2_2    R_2_18_30_1    R_2_18_30_2    R_2_18_31_1    R_2_18_31_2    R_2_18_32_1    R_2_18_32_2
    R_2_18_33_1    R_2_18_33_2    R_2_18_34_1    R_2_18_34_2    R_2_18_35_1    R_2_18_35_2    R_2_18_36_1    R_2_18_36_2
    R_2_18_37_1    R_2_18_37_2    R_2_18_38_1    R_2_18_38_2    R_2_18_39_2     R_2_18_3_1     R_2_18_3_2     R_2_18_4_1
     R_2_18_4_2     R_2_18_5_1     R_2_18_5_2     R_2_18_6_1     R_2_18_6_2     R_2_18_7_1     R_2_18_7_2     R_2_18_8_1
     R_2_18_8_2     R_2_18_9_1     R_2_18_9_2     R_2_19_0_1     R_2_19_0_2    R_2_19_10_1    R_2_19_10_2    R_2_19_11_1
    R_2_19_11_2    R_2_19_12_1    R_2_19_12_2    R_2_19_13_1    R_2_19_13_2    R_2_19_14_1    R_2_19_14_2    R_2_19_15_1
    R_2_19_15_2    R_2_19_16_1    R_2_19_16_2    R_2_19_17_1    R_2_19_17_2    R_2_19_18_1    R_2_19_18_2    R_2_19_19_1
    R_2_19_19_2     R_2_19_1_1     R_2_19_1_2    R_2_19_20_1    R_2_19_20_2    R_2_19_21_1    R_2_19_21_2    R_2_19_22_1
    R_2_19_22_2    R_2_19_23_1    R_2_19_23_2    R_2_19_24_1    R_2_19_24_2    R_2_19_25_1    R_2_19_25_2    R_2_19_26_1
    R_2_19_26_2    R_2_19_27_1    R_2_19_27_2    R_2_19_28_1    R_2_19_28_2    R_2_19_29_1    R_2_19_29_2     R_2_19_2_1
     R_2_19_2_2    R_2_19_30_1    R_2_19_30_2    R_2_19_31_1    R_2_19_31_2    R_2_19_32_1    R_2_19_32_2    R_2_19_33_1
    R_2_19_33_2    R_2_19_34_1    R_2_19_34_2    R_2_19_35_1    R_2_19_35_2    R_2_19_36_1    R_2_19_36_2    R_2_19_37_1
    R_2_19_37_2    R_2_19_38_1    R_2_19_38_2    R_2_19_39_2     R_2_19_3_1     R_2_19_3_2     R_2_19_4_1     R_2_19_4_2
     R_2_19_5_1     R_2_19_5_2     R_2_19_6_1     R_2_19_6_2     R_2_19_7_1     R_2_19_7_2     R_2_19_8_1     R_2_19_8_2
     R_2_19_9_1     R_2_19_9_2      R_2_1_0_1      R_2_1_0_2     R_2_1_10_1     R_2_1_10_2     R_2_1_11_1     R_2_1_11_2
     R_2_1_12_1     R_2_1_12_2     R_2_1_13_1     R_2_1_13_2     R_2_1_14_1     R_2_1_14_2     R_2_1_15_1     R_2_1_15_2
     R_2_1_16_1     R_2_1_16_2     R_2_1_17_1     R_2_1_17_2     R_2_1_18_1     R_2_1_18_2     R_2_1_19_1     R_2_1_19_2
      R_2_1_1_1      R_2_1_1_2     R_2_1_20_1     R_2_1_20_2     R_2_1_21_1     R_2_1_21_2     R_2_1_22_1     R_2_1_22_2
     R_2_1_23_1     R_2_1_23_2     R_2_1_24_1     R_2_1_24_2     R_2_1_25_1     R_2_1_25_2     R_2_1_26_1     R_2_1_26_2
     R_2_1_27_1     R_2_1_27_2     R_2_1_28_1     R_2_1_28_2     R_2_1_29_1     R_2_1_29_2      R_2_1_2_1      R_2_1_2_2
     R_2_1_30_1     R_2_1_30_2     R_2_1_31_1     R_2_1_31_2     R_2_1_32_1     R_2_1_32_2     R_2_1_33_1     R_2_1_33_2
     R_2_1_34_1     R_2_1_34_2     R_2_1_35_1     R_2_1_35_2     R_2_1_36_1     R_2_1_36_2     R_2_1_37_1     R_2_1_37_2
     R_2_1_38_1     R_2_1_38_2     R_2_1_39_2      R_2_1_3_1      R_2_1_3_2      R_2_1_4_1      R_2_1_4_2      R_2_1_5_1
      R_2_1_5_2      R_2_1_6_1      R_2_1_6_2      R_2_1_7_1      R_2_1_7_2      R_2_1_8_1      R_2_1_8_2      R_2_1_9_1
      R_2_1_9_2     R_2_20_0_1     R_2_20_0_2    R_2_20_10_1    R_2_20_10_2    R_2_20_11_1    R_2_20_11_2    R_2_20_12_1
    R_2_20_12_2    R_2_20_13_1    R_2_20_13_2    R_2_20_14_1    R_2_20_14_2    R_2_20_15_1    R_2_20_15_2    R_2_20_16_1
    R_2_20_16_2    R_2_20_17_1    R_2_20_17_2    R_2_20_18_1    R_2_20_18_2    R_2_20_19_1    R_2_20_19_2     R_2_20_1_1
     R_2_20_1_2    R_2_20_20_1    R_2_20_20_2    R_2_20_21_1    R_2_20_21_2    R_2_20_22_1    R_2_20_22_2    R_2_20_23_1
    R_2_20_23_2    R_2_20_24_1    R_2_20_24_2    R_2_20_25_1    R_2_20_25_2    R_2_20_26_1    R_2_20_26_2    R_2_20_27_1
    R_2_20_27_2    R_2_20_28_1    R_2_20_28_2    R_2_20_29_1    R_2_20_29_2     R_2_20_2_1     R_2_20_2_2    R_2_20_30_1
    R_2_20_30_2    R_2_20_31_1    R_2_20_31_2    R_2_20_32_1    R_2_20_32_2    R_2_20_33_1    R_2_20_33_2    R_2_20_34_1
    R_2_20_34_2    R_2_20_35_1    R_2_20_35_2    R_2_20_36_1    R_2_20_36_2    R_2_20_37_1    R_2_20_37_2    R_2_20_38_1
    R_2_20_38_2    R_2_20_39_2     R_2_20_3_1     R_2_20_3_2     R_2_20_4_1     R_2_20_4_2     R_2_20_5_1     R_2_20_5_2
     R_2_20_6_1     R_2_20_6_2     R_2_20_7_1     R_2_20_7_2     R_2_20_8_1     R_2_20_8_2     R_2_20_9_1     R_2_20_9_2
     R_2_21_0_1     R_2_21_0_2    R_2_21_10_1    R_2_21_10_2    R_2_21_11_1    R_2_21_11_2    R_2_21_12_1    R_2_21_12_2
    R_2_21_13_1    R_2_21_13_2    R_2_21_14_1    R_2_21_14_2    R_2_21_15_1    R_2_21_15_2    R_2_21_16_1    R_2_21_16_2
    R_2_21_17_1    R_2_21_17_2    R_2_21_18_1    R_2_21_18_2    R_2_21_19_1    R_2_21_19_2     R_2_21_1_1     R_2_21_1_2
    R_2_21_20_1    R_2_21_20_2    R_2_21_21_1    R_2_21_21_2    R_2_21_22_1    R_2_21_22_2    R_2_21_23_1    R_2_21_23_2
    R_2_21_24_1    R_2_21_24_2    R_2_21_25_1    R_2_21_25_2    R_2_21_26_1    R_2_21_26_2    R_2_21_27_1    R_2_21_27_2
    R_2_21_28_1    R_2_21_28_2    R_2_21_29_1    R_2_21_29_2     R_2_21_2_1     R_2_21_2_2    R_2_21_30_1    R_2_21_30_2
    R_2_21_31_1    R_2_21_31_2    R_2_21_32_1    R_2_21_32_2    R_2_21_33_1    R_2_21_33_2    R_2_21_34_1    R_2_21_34_2
    R_2_21_35_1    R_2_21_35_2    R_2_21_36_1    R_2_21_36_2    R_2_21_37_1    R_2_21_37_2    R_2_21_38_1    R_2_21_38_2
    R_2_21_39_2     R_2_21_3_1     R_2_21_3_2     R_2_21_4_1     R_2_21_4_2     R_2_21_5_1     R_2_21_5_2     R_2_21_6_1
     R_2_21_6_2     R_2_21_7_1     R_2_21_7_2     R_2_21_8_1     R_2_21_8_2     R_2_21_9_1     R_2_21_9_2     R_2_22_0_1
     R_2_22_0_2    R_2_22_10_1    R_2_22_10_2    R_2_22_11_1    R_2_22_11_2    R_2_22_12_1    R_2_22_12_2    R_2_22_13_1
    R_2_22_13_2    R_2_22_14_1    R_2_22_14_2    R_2_22_15_1    R_2_22_15_2    R_2_22_16_1    R_2_22_16_2    R_2_22_17_1
    R_2_22_17_2    R_2_22_18_1    R_2_22_18_2    R_2_22_19_1    R_2_22_19_2     R_2_22_1_1     R_2_22_1_2    R_2_22_20_1
    R_2_22_20_2    R_2_22_21_1    R_2_22_21_2    R_2_22_22_1    R_2_22_22_2    R_2_22_23_1    R_2_22_23_2    R_2_22_24_1
    R_2_22_24_2    R_2_22_25_1    R_2_22_25_2    R_2_22_26_1    R_2_22_26_2    R_2_22_27_1    R_2_22_27_2    R_2_22_28_1
    R_2_22_28_2    R_2_22_29_1    R_2_22_29_2     R_2_22_2_1     R_2_22_2_2    R_2_22_30_1    R_2_22_30_2    R_2_22_31_1
    R_2_22_31_2    R_2_22_32_1    R_2_22_32_2    R_2_22_33_1    R_2_22_33_2    R_2_22_34_1    R_2_22_34_2    R_2_22_35_1
    R_2_22_35_2    R_2_22_36_1    R_2_22_36_2    R_2_22_37_1    R_2_22_37_2    R_2_22_38_1    R_2_22_38_2    R_2_22_39_2
     R_2_22_3_1     R_2_22_3_2     R_2_22_4_1     R_2_22_4_2     R_2_22_5_1     R_2_22_5_2     R_2_22_6_1     R_2_22_6_2
     R_2_22_7_1     R_2_22_7_2     R_2_22_8_1     R_2_22_8_2     R_2_22_9_1     R_2_22_9_2     R_2_23_0_1     R_2_23_0_2
    R_2_23_10_1    R_2_23_10_2    R_2_23_11_1    R_2_23_11_2    R_2_23_12_1    R_2_23_12_2    R_2_23_13_1    R_2_23_13_2
    R_2_23_14_1    R_2_23_14_2    R_2_23_15_1    R_2_23_15_2    R_2_23_16_1    R_2_23_16_2    R_2_23_17_1    R_2_23_17_2
    R_2_23_18_1    R_2_23_18_2    R_2_23_19_1    R_2_23_19_2     R_2_23_1_1     R_2_23_1_2    R_2_23_20_1    R_2_23_20_2
    R_2_23_21_1    R_2_23_21_2    R_2_23_22_1    R_2_23_22_2    R_2_23_23_1    R_2_23_23_2    R_2_23_24_1    R_2_23_24_2
    R_2_23_25_1    R_2_23_25_2    R_2_23_26_1    R_2_23_26_2    R_2_23_27_1    R_2_23_27_2    R_2_23_28_1    R_2_23_28_2
    R_2_23_29_1    R_2_23_29_2     R_2_23_2_1     R_2_23_2_2    R_2_23_30_1    R_2_23_30_2    R_2_23_31_1    R_2_23_31_2
    R_2_23_32_1    R_2_23_32_2    R_2_23_33_1    R_2_23_33_2    R_2_23_34_1    R_2_23_34_2    R_2_23_35_1    R_2_23_35_2
    R_2_23_36_1    R_2_23_36_2    R_2_23_37_1    R_2_23_37_2    R_2_23_38_1    R_2_23_38_2    R_2_23_39_2     R_2_23_3_1
     R_2_23_3_2     R_2_23_4_1     R_2_23_4_2     R_2_23_5_1     R_2_23_5_2     R_2_23_6_1     R_2_23_6_2     R_2_23_7_1
     R_2_23_7_2     R_2_23_8_1     R_2_23_8_2     R_2_23_9_1     R_2_23_9_2     R_2_24_0_1     R_2_24_0_2    R_2_24_10_1
    R_2_24_10_2    R_2_24_11_1    R_2_24_11_2    R_2_24_12_1    R_2_24_12_2    R_2_24_13_1    R_2_24_13_2    R_2_24_14_1
    R_2_24_14_2    R_2_24_15_1    R_2_24_15_2    R_2_24_16_1    R_2_24_16_2    R_2_24_17_1    R_2_24_17_2    R_2_24_18_1
    R_2_24_18_2    R_2_24_19_1    R_2_24_19_2     R_2_24_1_1     R_2_24_1_2    R_2_24_20_1    R_2_24_20_2    R_2_24_21_1
    R_2_24_21_2    R_2_24_22_1    R_2_24_22_2    R_2_24_23_1    R_2_24_23_2    R_2_24_24_1    R_2_24_24_2    R_2_24_25_1
    R_2_24_25_2    R_2_24_26_1    R_2_24_26_2    R_2_24_27_1    R_2_24_27_2    R_2_24_28_1    R_2_24_28_2    R_2_24_29_1
    R_2_24_29_2     R_2_24_2_1     R_2_24_2_2    R_2_24_30_1    R_2_24_30_2    R_2_24_31_1    R_2_24_31_2    R_2_24_32_1
    R_2_24_32_2    R_2_24_33_1    R_2_24_33_2    R_2_24_34_1    R_2_24_34_2    R_2_24_35_1    R_2_24_35_2    R_2_24_36_1
    R_2_24_36_2    R_2_24_37_1    R_2_24_37_2    R_2_24_38_1    R_2_24_38_2    R_2_24_39_2     R_2_24_3_1     R_2_24_3_2
     R_2_24_4_1     R_2_24_4_2     R_2_24_5_1     R_2_24_5_2     R_2_24_6_1     R_2_24_6_2     R_2_24_7_1     R_2_24_7_2
     R_2_24_8_1     R_2_24_8_2     R_2_24_9_1     R_2_24_9_2     R_2_25_0_1     R_2_25_0_2    R_2_25_10_1    R_2_25_10_2
    R_2_25_11_1    R_2_25_11_2    R_2_25_12_1    R_2_25_12_2    R_2_25_13_1    R_2_25_13_2    R_2_25_14_1    R_2_25_14_2
    R_2_25_15_1    R_2_25_15_2    R_2_25_16_1    R_2_25_16_2    R_2_25_17_1    R_2_25_17_2    R_2_25_18_1    R_2_25_18_2
    R_2_25_19_1    R_2_25_19_2     R_2_25_1_1     R_2_25_1_2    R_2_25_20_1    R_2_25_20_2    R_2_25_21_1    R_2_25_21_2
    R_2_25_22_1    R_2_25_22_2    R_2_25_23_1    R_2_25_23_2    R_2_25_24_1    R_2_25_24_2    R_2_25_25_1    R_2_25_25_2
    R_2_25_26_1    R_2_25_26_2    R_2_25_27_1    R_2_25_27_2    R_2_25_28_1    R_2_25_28_2    R_2_25_29_1    R_2_25_29_2
     R_2_25_2_1     R_2_25_2_2    R_2_25_30_1    R_2_25_30_2    R_2_25_31_1    R_2_25_31_2    R_2_25_32_1    R_2_25_32_2
    R_2_25_33_1    R_2_25_33_2    R_2_25_34_1    R_2_25_34_2    R_2_25_35_1    R_2_25_35_2    R_2_25_36_1    R_2_25_36_2
    R_2_25_37_1    R_2_25_37_2    R_2_25_38_1    R_2_25_38_2    R_2_25_39_2     R_2_25_3_1     R_2_25_3_2     R_2_25_4_1
     R_2_25_4_2     R_2_25_5_1     R_2_25_5_2     R_2_25_6_1     R_2_25_6_2     R_2_25_7_1     R_2_25_7_2     R_2_25_8_1
     R_2_25_8_2     R_2_25_9_1     R_2_25_9_2     R_2_26_0_1     R_2_26_0_2    R_2_26_10_1    R_2_26_10_2    R_2_26_11_1
    R_2_26_11_2    R_2_26_12_1    R_2_26_12_2    R_2_26_13_1    R_2_26_13_2    R_2_26_14_1    R_2_26_14_2    R_2_26_15_1
    R_2_26_15_2    R_2_26_16_1    R_2_26_16_2    R_2_26_17_1    R_2_26_17_2    R_2_26_18_1    R_2_26_18_2    R_2_26_19_1
    R_2_26_19_2     R_2_26_1_1     R_2_26_1_2    R_2_26_20_1    R_2_26_20_2    R_2_26_21_1    R_2_26_21_2    R_2_26_22_1
    R_2_26_22_2    R_2_26_23_1    R_2_26_23_2    R_2_26_24_1    R_2_26_24_2    R_2_26_25_1    R_2_26_25_2    R_2_26_26_1
    R_2_26_26_2    R_2_26_27_1    R_2_26_27_2    R_2_26_28_1    R_2_26_28_2    R_2_26_29_1    R_2_26_29_2     R_2_26_2_1
     R_2_26_2_2    R_2_26_30_1    R_2_26_30_2    R_2_26_31_1    R_2_26_31_2    R_2_26_32_1    R_2_26_32_2    R_2_26_33_1
    R_2_26_33_2    R_2_26_34_1    R_2_26_34_2    R_2_26_35_1    R_2_26_35_2    R_2_26_36_1    R_2_26_36_2    R_2_26_37_1
    R_2_26_37_2    R_2_26_38_1    R_2_26_38_2    R_2_26_39_2     R_2_26_3_1     R_2_26_3_2     R_2_26_4_1     R_2_26_4_2
     R_2_26_5_1     R_2_26_5_2     R_2_26_6_1     R_2_26_6_2     R_2_26_7_1     R_2_26_7_2     R_2_26_8_1     R_2_26_8_2
     R_2_26_9_1     R_2_26_9_2     R_2_27_0_1     R_2_27_0_2    R_2_27_10_1    R_2_27_10_2    R_2_27_11_1    R_2_27_11_2
    R_2_27_12_1    R_2_27_12_2    R_2_27_13_1    R_2_27_13_2    R_2_27_14_1    R_2_27_14_2    R_2_27_15_1    R_2_27_15_2
    R_2_27_16_1    R_2_27_16_2    R_2_27_17_1    R_2_27_17_2    R_2_27_18_1    R_2_27_18_2    R_2_27_19_1    R_2_27_19_2
     R_2_27_1_1     R_2_27_1_2    R_2_27_20_1    R_2_27_20_2    R_2_27_21_1    R_2_27_21_2    R_2_27_22_1    R_2_27_22_2
    R_2_27_23_1    R_2_27_23_2    R_2_27_24_1    R_2_27_24_2    R_2_27_25_1    R_2_27_25_2    R_2_27_26_1    R_2_27_26_2
    R_2_27_27_1    R_2_27_27_2    R_2_27_28_1    R_2_27_28_2    R_2_27_29_1    R_2_27_29_2     R_2_27_2_1     R_2_27_2_2
    R_2_27_30_1    R_2_27_30_2    R_2_27_31_1    R_2_27_31_2    R_2_27_32_1    R_2_27_32_2    R_2_27_33_1    R_2_27_33_2
    R_2_27_34_1    R_2_27_34_2    R_2_27_35_1    R_2_27_35_2    R_2_27_36_1    R_2_27_36_2    R_2_27_37_1    R_2_27_37_2
    R_2_27_38_1    R_2_27_38_2    R_2_27_39_2     R_2_27_3_1     R_2_27_3_2     R_2_27_4_1     R_2_27_4_2     R_2_27_5_1
     R_2_27_5_2     R_2_27_6_1     R_2_27_6_2     R_2_27_7_1     R_2_27_7_2     R_2_27_8_1     R_2_27_8_2     R_2_27_9_1
     R_2_27_9_2     R_2_28_0_1     R_2_28_0_2    R_2_28_10_1    R_2_28_10_2    R_2_28_11_1    R_2_28_11_2    R_2_28_12_1
    R_2_28_12_2    R_2_28_13_1    R_2_28_13_2    R_2_28_14_1    R_2_28_14_2    R_2_28_15_1    R_2_28_15_2    R_2_28_16_1
    R_2_28_16_2    R_2_28_17_1    R_2_28_17_2    R_2_28_18_1    R_2_28_18_2    R_2_28_19_1    R_2_28_19_2     R_2_28_1_1
     R_2_28_1_2    R_2_28_20_1    R_2_28_20_2    R_2_28_21_1    R_2_28_21_2    R_2_28_22_1    R_2_28_22_2    R_2_28_23_1
    R_2_28_23_2    R_2_28_24_1    R_2_28_24_2    R_2_28_25_1    R_2_28_25_2    R_2_28_26_1    R_2_28_26_2    R_2_28_27_1
    R_2_28_27_2    R_2_28_28_1    R_2_28_28_2    R_2_28_29_1    R_2_28_29_2     R_2_28_2_1     R_2_28_2_2    R_2_28_30_1
    R_2_28_30_2    R_2_28_31_1    R_2_28_31_2    R_2_28_32_1    R_2_28_32_2    R_2_28_33_1    R_2_28_33_2    R_2_28_34_1
    R_2_28_34_2    R_2_28_35_1    R_2_28_35_2    R_2_28_36_1    R_2_28_36_2    R_2_28_37_1    R_2_28_37_2    R_2_28_38_1
    R_2_28_38_2    R_2_28_39_2     R_2_28_3_1     R_2_28_3_2     R_2_28_4_1     R_2_28_4_2     R_2_28_5_1     R_2_28_5_2
     R_2_28_6_1     R_2_28_6_2     R_2_28_7_1     R_2_28_7_2     R_2_28_8_1     R_2_28_8_2     R_2_28_9_1     R_2_28_9_2
     R_2_29_0_1     R_2_29_0_2    R_2_29_10_1    R_2_29_10_2    R_2_29_11_1    R_2_29_11_2    R_2_29_12_1    R_2_29_12_2
    R_2_29_13_1    R_2_29_13_2    R_2_29_14_1    R_2_29_14_2    R_2_29_15_1    R_2_29_15_2    R_2_29_16_1    R_2_29_16_2
    R_2_29_17_1    R_2_29_17_2    R_2_29_18_1    R_2_29_18_2    R_2_29_19_1    R_2_29_19_2     R_2_29_1_1     R_2_29_1_2
    R_2_29_20_1    R_2_29_20_2    R_2_29_21_1    R_2_29_21_2    R_2_29_22_1    R_2_29_22_2    R_2_29_23_1    R_2_29_23_2
    R_2_29_24_1    R_2_29_24_2    R_2_29_25_1    R_2_29_25_2    R_2_29_26_1    R_2_29_26_2    R_2_29_27_1    R_2_29_27_2
    R_2_29_28_1    R_2_29_28_2    R_2_29_29_1    R_2_29_29_2     R_2_29_2_1     R_2_29_2_2    R_2_29_30_1    R_2_29_30_2
    R_2_29_31_1    R_2_29_31_2    R_2_29_32_1    R_2_29_32_2    R_2_29_33_1    R_2_29_33_2    R_2_29_34_1    R_2_29_34_2
    R_2_29_35_1    R_2_29_35_2    R_2_29_36_1    R_2_29_36_2    R_2_29_37_1    R_2_29_37_2    R_2_29_38_1    R_2_29_38_2
    R_2_29_39_2     R_2_29_3_1     R_2_29_3_2     R_2_29_4_1     R_2_29_4_2     R_2_29_5_1     R_2_29_5_2     R_2_29_6_1
     R_2_29_6_2     R_2_29_7_1     R_2_29_7_2     R_2_29_8_1     R_2_29_8_2     R_2_29_9_1     R_2_29_9_2      R_2_2_0_1
      R_2_2_0_2     R_2_2_10_1     R_2_2_10_2     R_2_2_11_1     R_2_2_11_2     R_2_2_12_1     R_2_2_12_2     R_2_2_13_1
     R_2_2_13_2     R_2_2_14_1     R_2_2_14_2     R_2_2_15_1     R_2_2_15_2     R_2_2_16_1     R_2_2_16_2     R_2_2_17_1
     R_2_2_17_2     R_2_2_18_1     R_2_2_18_2     R_2_2_19_1     R_2_2_19_2      R_2_2_1_1      R_2_2_1_2     R_2_2_20_1
     R_2_2_20_2     R_2_2_21_1     R_2_2_21_2     R_2_2_22_1     R_2_2_22_2     R_2_2_23_1     R_2_2_23_2     R_2_2_24_1
     R_2_2_24_2     R_2_2_25_1     R_2_2_25_2     R_2_2_26_1     R_2_2_26_2     R_2_2_27_1     R_2_2_27_2     R_2_2_28_1
     R_2_2_28_2     R_2_2_29_1     R_2_2_29_2      R_2_2_2_1      R_2_2_2_2     R_2_2_30_1     R_2_2_30_2     R_2_2_31_1
     R_2_2_31_2     R_2_2_32_1     R_2_2_32_2     R_2_2_33_1     R_2_2_33_2     R_2_2_34_1     R_2_2_34_2     R_2_2_35_1
     R_2_2_35_2     R_2_2_36_1     R_2_2_36_2     R_2_2_37_1     R_2_2_37_2     R_2_2_38_1     R_2_2_38_2     R_2_2_39_2
      R_2_2_3_1      R_2_2_3_2      R_2_2_4_1      R_2_2_4_2      R_2_2_5_1      R_2_2_5_2      R_2_2_6_1      R_2_2_6_2
      R_2_2_7_1      R_2_2_7_2      R_2_2_8_1      R_2_2_8_2      R_2_2_9_1      R_2_2_9_2     R_2_30_0_1     R_2_30_0_2
    R_2_30_10_1    R_2_30_10_2    R_2_30_11_1    R_2_30_11_2    R_2_30_12_1    R_2_30_12_2    R_2_30_13_1    R_2_30_13_2
    R_2_30_14_1    R_2_30_14_2    R_2_30_15_1    R_2_30_15_2    R_2_30_16_1    R_2_30_16_2    R_2_30_17_1    R_2_30_17_2
    R_2_30_18_1    R_2_30_18_2    R_2_30_19_1    R_2_30_19_2     R_2_30_1_1     R_2_30_1_2    R_2_30_20_1    R_2_30_20_2
    R_2_30_21_1    R_2_30_21_2    R_2_30_22_1    R_2_30_22_2    R_2_30_23_1    R_2_30_23_2    R_2_30_24_1    R_2_30_24_2
    R_2_30_25_1    R_2_30_25_2    R_2_30_26_1    R_2_30_26_2    R_2_30_27_1    R_2_30_27_2    R_2_30_28_1    R_2_30_28_2
    R_2_30_29_1    R_2_30_29_2     R_2_30_2_1     R_2_30_2_2    R_2_30_30_1    R_2_30_30_2    R_2_30_31_1    R_2_30_31_2
    R_2_30_32_1    R_2_30_32_2    R_2_30_33_1    R_2_30_33_2    R_2_30_34_1    R_2_30_34_2    R_2_30_35_1    R_2_30_35_2
    R_2_30_36_1    R_2_30_36_2    R_2_30_37_1    R_2_30_37_2    R_2_30_38_1    R_2_30_38_2    R_2_30_39_2     R_2_30_3_1
     R_2_30_3_2     R_2_30_4_1     R_2_30_4_2     R_2_30_5_1     R_2_30_5_2     R_2_30_6_1     R_2_30_6_2     R_2_30_7_1
     R_2_30_7_2     R_2_30_8_1     R_2_30_8_2     R_2_30_9_1     R_2_30_9_2     R_2_31_0_1     R_2_31_0_2    R_2_31_10_1
    R_2_31_10_2    R_2_31_11_1    R_2_31_11_2    R_2_31_12_1    R_2_31_12_2    R_2_31_13_1    R_2_31_13_2    R_2_31_14_1
    R_2_31_14_2    R_2_31_15_1    R_2_31_15_2    R_2_31_16_1    R_2_31_16_2    R_2_31_17_1    R_2_31_17_2    R_2_31_18_1
    R_2_31_18_2    R_2_31_19_1    R_2_31_19_2     R_2_31_1_1     R_2_31_1_2    R_2_31_20_1    R_2_31_20_2    R_2_31_21_1
    R_2_31_21_2    R_2_31_22_1    R_2_31_22_2    R_2_31_23_1    R_2_31_23_2    R_2_31_24_1    R_2_31_24_2    R_2_31_25_1
    R_2_31_25_2    R_2_31_26_1    R_2_31_26_2    R_2_31_27_1    R_2_31_27_2    R_2_31_28_1    R_2_31_28_2    R_2_31_29_1
    R_2_31_29_2     R_2_31_2_1     R_2_31_2_2    R_2_31_30_1    R_2_31_30_2    R_2_31_31_1    R_2_31_31_2    R_2_31_32_1
    R_2_31_32_2    R_2_31_33_1    R_2_31_33_2    R_2_31_34_1    R_2_31_34_2    R_2_31_35_1    R_2_31_35_2    R_2_31_36_1
    R_2_31_36_2    R_2_31_37_1    R_2_31_37_2    R_2_31_38_1    R_2_31_38_2    R_2_31_39_2     R_2_31_3_1     R_2_31_3_2
     R_2_31_4_1     R_2_31_4_2     R_2_31_5_1     R_2_31_5_2     R_2_31_6_1     R_2_31_6_2     R_2_31_7_1     R_2_31_7_2
     R_2_31_8_1     R_2_31_8_2     R_2_31_9_1     R_2_31_9_2     R_2_32_0_1     R_2_32_0_2    R_2_32_10_1    R_2_32_10_2
    R_2_32_11_1    R_2_32_11_2    R_2_32_12_1    R_2_32_12_2    R_2_32_13_1    R_2_32_13_2    R_2_32_14_1    R_2_32_14_2
    R_2_32_15_1    R_2_32_15_2    R_2_32_16_1    R_2_32_16_2    R_2_32_17_1    R_2_32_17_2    R_2_32_18_1    R_2_32_18_2
    R_2_32_19_1    R_2_32_19_2     R_2_32_1_1     R_2_32_1_2    R_2_32_20_1    R_2_32_20_2    R_2_32_21_1    R_2_32_21_2
    R_2_32_22_1    R_2_32_22_2    R_2_32_23_1    R_2_32_23_2    R_2_32_24_1    R_2_32_24_2    R_2_32_25_1    R_2_32_25_2
    R_2_32_26_1    R_2_32_26_2    R_2_32_27_1    R_2_32_27_2    R_2_32_28_1    R_2_32_28_2    R_2_32_29_1    R_2_32_29_2
     R_2_32_2_1     R_2_32_2_2    R_2_32_30_1    R_2_32_30_2    R_2_32_31_1    R_2_32_31_2    R_2_32_32_1    R_2_32_32_2
    R_2_32_33_1    R_2_32_33_2    R_2_32_34_1    R_2_32_34_2    R_2_32_35_1    R_2_32_35_2    R_2_32_36_1    R_2_32_36_2
    R_2_32_37_1    R_2_32_37_2    R_2_32_38_1    R_2_32_38_2    R_2_32_39_2     R_2_32_3_1     R_2_32_3_2     R_2_32_4_1
     R_2_32_4_2     R_2_32_5_1     R_2_32_5_2     R_2_32_6_1     R_2_32_6_2     R_2_32_7_1     R_2_32_7_2     R_2_32_8_1
     R_2_32_8_2     R_2_32_9_1     R_2_32_9_2     R_2_33_0_1     R_2_33_0_2    R_2_33_10_1    R_2_33_10_2    R_2_33_11_1
    R_2_33_11_2    R_2_33_12_1    R_2_33_12_2    R_2_33_13_1    R_2_33_13_2    R_2_33_14_1    R_2_33_14_2    R_2_33_15_1
    R_2_33_15_2    R_2_33_16_1    R_2_33_16_2    R_2_33_17_1    R_2_33_17_2    R_2_33_18_1    R_2_33_18_2    R_2_33_19_1
    R_2_33_19_2     R_2_33_1_1     R_2_33_1_2    R_2_33_20_1    R_2_33_20_2    R_2_33_21_1    R_2_33_21_2    R_2_33_22_1
    R_2_33_22_2    R_2_33_23_1    R_2_33_23_2    R_2_33_24_1    R_2_33_24_2    R_2_33_25_1    R_2_33_25_2    R_2_33_26_1
    R_2_33_26_2    R_2_33_27_1    R_2_33_27_2    R_2_33_28_1    R_2_33_28_2    R_2_33_29_1    R_2_33_29_2     R_2_33_2_1
     R_2_33_2_2    R_2_33_30_1    R_2_33_30_2    R_2_33_31_1    R_2_33_31_2    R_2_33_32_1    R_2_33_32_2    R_2_33_33_1
    R_2_33_33_2    R_2_33_34_1    R_2_33_34_2    R_2_33_35_1    R_2_33_35_2    R_2_33_36_1    R_2_33_36_2    R_2_33_37_1
    R_2_33_37_2    R_2_33_38_1    R_2_33_38_2    R_2_33_39_2     R_2_33_3_1     R_2_33_3_2     R_2_33_4_1     R_2_33_4_2
     R_2_33_5_1     R_2_33_5_2     R_2_33_6_1     R_2_33_6_2     R_2_33_7_1     R_2_33_7_2     R_2_33_8_1     R_2_33_8_2
     R_2_33_9_1     R_2_33_9_2     R_2_34_0_1     R_2_34_0_2    R_2_34_10_1    R_2_34_10_2    R_2_34_11_1    R_2_34_11_2
    R_2_34_12_1    R_2_34_12_2    R_2_34_13_1    R_2_34_13_2    R_2_34_14_1    R_2_34_14_2    R_2_34_15_1    R_2_34_15_2
    R_2_34_16_1    R_2_34_16_2    R_2_34_17_1    R_2_34_17_2    R_2_34_18_1    R_2_34_18_2    R_2_34_19_1    R_2_34_19_2
     R_2_34_1_1     R_2_34_1_2    R_2_34_20_1    R_2_34_20_2    R_2_34_21_1    R_2_34_21_2    R_2_34_22_1    R_2_34_22_2
    R_2_34_23_1    R_2_34_23_2    R_2_34_24_1    R_2_34_24_2    R_2_34_25_1    R_2_34_25_2    R_2_34_26_1    R_2_34_26_2
    R_2_34_27_1    R_2_34_27_2    R_2_34_28_1    R_2_34_28_2    R_2_34_29_1    R_2_34_29_2     R_2_34_2_1     R_2_34_2_2
    R_2_34_30_1    R_2_34_30_2    R_2_34_31_1    R_2_34_31_2    R_2_34_32_1    R_2_34_32_2    R_2_34_33_1    R_2_34_33_2
    R_2_34_34_1    R_2_34_34_2    R_2_34_35_1    R_2_34_35_2    R_2_34_36_1    R_2_34_36_2    R_2_34_37_1    R_2_34_37_2
    R_2_34_38_1    R_2_34_38_2    R_2_34_39_2     R_2_34_3_1     R_2_34_3_2     R_2_34_4_1     R_2_34_4_2     R_2_34_5_1
     R_2_34_5_2     R_2_34_6_1     R_2_34_6_2     R_2_34_7_1     R_2_34_7_2     R_2_34_8_1     R_2_34_8_2     R_2_34_9_1
     R_2_34_9_2     R_2_35_0_1     R_2_35_0_2    R_2_35_10_1    R_2_35_10_2    R_2_35_11_1    R_2_35_11_2    R_2_35_12_1
    R_2_35_12_2    R_2_35_13_1    R_2_35_13_2    R_2_35_14_1    R_2_35_14_2    R_2_35_15_1    R_2_35_15_2    R_2_35_16_1
    R_2_35_16_2    R_2_35_17_1    R_2_35_17_2    R_2_35_18_1    R_2_35_18_2    R_2_35_19_1    R_2_35_19_2     R_2_35_1_1
     R_2_35_1_2    R_2_35_20_1    R_2_35_20_2    R_2_35_21_1    R_2_35_21_2    R_2_35_22_1    R_2_35_22_2    R_2_35_23_1
    R_2_35_23_2    R_2_35_24_1    R_2_35_24_2    R_2_35_25_1    R_2_35_25_2    R_2_35_26_1    R_2_35_26_2    R_2_35_27_1
    R_2_35_27_2    R_2_35_28_1    R_2_35_28_2    R_2_35_29_1    R_2_35_29_2     R_2_35_2_1     R_2_35_2_2    R_2_35_30_1
    R_2_35_30_2    R_2_35_31_1    R_2_35_31_2    R_2_35_32_1    R_2_35_32_2    R_2_35_33_1    R_2_35_33_2    R_2_35_34_1
    R_2_35_34_2    R_2_35_35_1    R_2_35_35_2    R_2_35_36_1    R_2_35_36_2    R_2_35_37_1    R_2_35_37_2    R_2_35_38_1
    R_2_35_38_2    R_2_35_39_2     R_2_35_3_1     R_2_35_3_2     R_2_35_4_1     R_2_35_4_2     R_2_35_5_1     R_2_35_5_2
     R_2_35_6_1     R_2_35_6_2     R_2_35_7_1     R_2_35_7_2     R_2_35_8_1     R_2_35_8_2     R_2_35_9_1     R_2_35_9_2
     R_2_36_0_1     R_2_36_0_2    R_2_36_10_1    R_2_36_10_2    R_2_36_11_1    R_2_36_11_2    R_2_36_12_1    R_2_36_12_2
    R_2_36_13_1    R_2_36_13_2    R_2_36_14_1    R_2_36_14_2    R_2_36_15_1    R_2_36_15_2    R_2_36_16_1    R_2_36_16_2
    R_2_36_17_1    R_2_36_17_2    R_2_36_18_1    R_2_36_18_2    R_2_36_19_1    R_2_36_19_2     R_2_36_1_1     R_2_36_1_2
    R_2_36_20_1    R_2_36_20_2    R_2_36_21_1    R_2_36_21_2    R_2_36_22_1    R_2_36_22_2    R_2_36_23_1    R_2_36_23_2
    R_2_36_24_1    R_2_36_24_2    R_2_36_25_1    R_2_36_25_2    R_2_36_26_1    R_2_36_26_2    R_2_36_27_1    R_2_36_27_2
    R_2_36_28_1    R_2_36_28_2    R_2_36_29_1    R_2_36_29_2     R_2_36_2_1     R_2_36_2_2    R_2_36_30_1    R_2_36_30_2
    R_2_36_31_1    R_2_36_31_2    R_2_36_32_1    R_2_36_32_2    R_2_36_33_1    R_2_36_33_2    R_2_36_34_1    R_2_36_34_2
    R_2_36_35_1    R_2_36_35_2    R_2_36_36_1    R_2_36_36_2    R_2_36_37_1    R_2_36_37_2    R_2_36_38_1    R_2_36_38_2
    R_2_36_39_2     R_2_36_3_1     R_2_36_3_2     R_2_36_4_1     R_2_36_4_2     R_2_36_5_1     R_2_36_5_2     R_2_36_6_1
     R_2_36_6_2     R_2_36_7_1     R_2_36_7_2     R_2_36_8_1     R_2_36_8_2     R_2_36_9_1     R_2_36_9_2     R_2_37_0_1
     R_2_37_0_2    R_2_37_10_1    R_2_37_10_2    R_2_37_11_1    R_2_37_11_2    R_2_37_12_1    R_2_37_12_2    R_2_37_13_1
    R_2_37_13_2    R_2_37_14_1    R_2_37_14_2    R_2_37_15_1    R_2_37_15_2    R_2_37_16_1    R_2_37_16_2    R_2_37_17_1
    R_2_37_17_2    R_2_37_18_1    R_2_37_18_2    R_2_37_19_1    R_2_37_19_2     R_2_37_1_1     R_2_37_1_2    R_2_37_20_1
    R_2_37_20_2    R_2_37_21_1    R_2_37_21_2    R_2_37_22_1    R_2_37_22_2    R_2_37_23_1    R_2_37_23_2    R_2_37_24_1
    R_2_37_24_2    R_2_37_25_1    R_2_37_25_2    R_2_37_26_1    R_2_37_26_2    R_2_37_27_1    R_2_37_27_2    R_2_37_28_1
    R_2_37_28_2    R_2_37_29_1    R_2_37_29_2     R_2_37_2_1     R_2_37_2_2    R_2_37_30_1    R_2_37_30_2    R_2_37_31_1
    R_2_37_31_2    R_2_37_32_1    R_2_37_32_2    R_2_37_33_1    R_2_37_33_2    R_2_37_34_1    R_2_37_34_2    R_2_37_35_1
    R_2_37_35_2    R_2_37_36_1    R_2_37_36_2    R_2_37_37_1    R_2_37_37_2    R_2_37_38_1    R_2_37_38_2    R_2_37_39_2
     R_2_37_3_1     R_2_37_3_2     R_2_37_4_1     R_2_37_4_2     R_2_37_5_1     R_2_37_5_2     R_2_37_6_1     R_2_37_6_2
     R_2_37_7_1     R_2_37_7_2     R_2_37_8_1     R_2_37_8_2     R_2_37_9_1     R_2_37_9_2     R_2_38_0_1     R_2_38_0_2
    R_2_38_10_1    R_2_38_10_2    R_2_38_11_1    R_2_38_11_2    R_2_38_12_1    R_2_38_12_2    R_2_38_13_1    R_2_38_13_2
    R_2_38_14_1    R_2_38_14_2    R_2_38_15_1    R_2_38_15_2    R_2_38_16_1    R_2_38_16_2    R_2_38_17_1    R_2_38_17_2
    R_2_38_18_1    R_2_38_18_2    R_2_38_19_1    R_2_38_19_2     R_2_38_1_1     R_2_38_1_2    R_2_38_20_1    R_2_38_20_2
    R_2_38_21_1    R_2_38_21_2    R_2_38_22_1    R_2_38_22_2    R_2_38_23_1    R_2_38_23_2    R_2_38_24_1    R_2_38_24_2
    R_2_38_25_1    R_2_38_25_2    R_2_38_26_1    R_2_38_26_2    R_2_38_27_1    R_2_38_27_2    R_2_38_28_1    R_2_38_28_2
    R_2_38_29_1    R_2_38_29_2     R_2_38_2_1     R_2_38_2_2    R_2_38_30_1    R_2_38_30_2    R_2_38_31_1    R_2_38_31_2
    R_2_38_32_1    R_2_38_32_2    R_2_38_33_1    R_2_38_33_2    R_2_38_34_1    R_2_38_34_2    R_2_38_35_1    R_2_38_35_2
    R_2_38_36_1    R_2_38_36_2    R_2_38_37_1    R_2_38_37_2    R_2_38_38_1    R_2_38_38_2    R_2_38_39_2     R_2_38_3_1
     R_2_38_3_2     R_2_38_4_1     R_2_38_4_2     R_2_38_5_1     R_2_38_5_2     R_2_38_6_1     R_2_38_6_2     R_2_38_7_1
     R_2_38_7_2     R_2_38_8_1     R_2_38_8_2     R_2_38_9_1     R_2_38_9_2     R_2_39_0_1    R_2_39_10_1    R_2_39_11_1
    R_2_39_12_1    R_2_39_13_1    R_2_39_14_1    R_2_39_15_1    R_2_39_16_1    R_2_39_17_1    R_2_39_18_1    R_2_39_19_1
     R_2_39_1_1    R_2_39_20_1    R_2_39_21_1    R_2_39_22_1    R_2_39_23_1    R_2_39_24_1    R_2_39_25_1    R_2_39_26_1
    R_2_39_27_1    R_2_39_28_1    R_2_39_29_1     R_2_39_2_1    R_2_39_30_1    R_2_39_31_1    R_2_39_32_1    R_2_39_33_1
    R_2_39_34_1    R_2_39_35_1    R_2_39_36_1    R_2_39_37_1    R_2_39_38_1     R_2_39_3_1     R_2_39_4_1     R_2_39_5_1
     R_2_39_6_1     R_2_39_7_1     R_2_39_8_1     R_2_39_9_1      R_2_3_0_1      R_2_3_0_2     R_2_3_10_1     R_2_3_10_2
     R_2_3_11_1     R_2_3_11_2     R_2_3_12_1     R_2_3_12_2     R_2_3_13_1     R_2_3_13_2     R_2_3_14_1     R_2_3_14_2
     R_2_3_15_1     R_2_3_15_2     R_2_3_16_1     R_2_3_16_2     R_2_3_17_1     R_2_3_17_2     R_2_3_18_1     R_2_3_18_2
     R_2_3_19_1     R_2_3_19_2      R_2_3_1_1      R_2_3_1_2     R_2_3_20_1     R_2_3_20_2     R_2_3_21_1     R_2_3_21_2
     R_2_3_22_1     R_2_3_22_2     R_2_3_23_1     R_2_3_23_2     R_2_3_24_1     R_2_3_24_2     R_2_3_25_1     R_2_3_25_2
     R_2_3_26_1     R_2_3_26_2     R_2_3_27_1     R_2_3_27_2     R_2_3_28_1     R_2_3_28_2     R_2_3_29_1     R_2_3_29_2
      R_2_3_2_1      R_2_3_2_2     R_2_3_30_1     R_2_3_30_2     R_2_3_31_1     R_2_3_31_2     R_2_3_32_1     R_2_3_32_2
     R_2_3_33_1     R_2_3_33_2     R_2_3_34_1     R_2_3_34_2     R_2_3_35_1     R_2_3_35_2     R_2_3_36_1     R_2_3_36_2
     R_2_3_37_1     R_2_3_37_2     R_2_3_38_1     R_2_3_38_2     R_2_3_39_2      R_2_3_3_1      R_2_3_3_2      R_2_3_4_1
      R_2_3_4_2      R_2_3_5_1      R_2_3_5_2      R_2_3_6_1      R_2_3_6_2      R_2_3_7_1      R_2_3_7_2      R_2_3_8_1
      R_2_3_8_2      R_2_3_9_1      R_2_3_9_2      R_2_4_0_1      R_2_4_0_2     R_2_4_10_1     R_2_4_10_2     R_2_4_11_1
     R_2_4_11_2     R_2_4_12_1     R_2_4_12_2     R_2_4_13_1     R_2_4_13_2     R_2_4_14_1     R_2_4_14_2     R_2_4_15_1
     R_2_4_15_2     R_2_4_16_1     R_2_4_16_2     R_2_4_17_1     R_2_4_17_2     R_2_4_18_1     R_2_4_18_2     R_2_4_19_1
     R_2_4_19_2      R_2_4_1_1      R_2_4_1_2     R_2_4_20_1     R_2_4_20_2     R_2_4_21_1     R_2_4_21_2     R_2_4_22_1
     R_2_4_22_2     R_2_4_23_1     R_2_4_23_2     R_2_4_24_1     R_2_4_24_2     R_2_4_25_1     R_2_4_25_2     R_2_4_26_1
     R_2_4_26_2     R_2_4_27_1     R_2_4_27_2     R_2_4_28_1     R_2_4_28_2     R_2_4_29_1     R_2_4_29_2      R_2_4_2_1
      R_2_4_2_2     R_2_4_30_1     R_2_4_30_2     R_2_4_31_1     R_2_4_31_2     R_2_4_32_1     R_2_4_32_2     R_2_4_33_1
     R_2_4_33_2     R_2_4_34_1     R_2_4_34_2     R_2_4_35_1     R_2_4_35_2     R_2_4_36_1     R_2_4_36_2     R_2_4_37_1
     R_2_4_37_2     R_2_4_38_1     R_2_4_38_2     R_2_4_39_2      R_2_4_3_1      R_2_4_3_2      R_2_4_4_1      R_2_4_4_2
      R_2_4_5_1      R_2_4_5_2      R_2_4_6_1      R_2_4_6_2      R_2_4_7_1      R_2_4_7_2      R_2_4_8_1      R_2_4_8_2
      R_2_4_9_1      R_2_4_9_2      R_2_5_0_1      R_2_5_0_2     R_2_5_10_1     R_2_5_10_2     R_2_5_11_1     R_2_5_11_2
     R_2_5_12_1     R_2_5_12_2     R_2_5_13_1     R_2_5_13_2     R_2_5_14_1     R_2_5_14_2     R_2_5_15_1     R_2_5_15_2
     R_2_5_16_1     R_2_5_16_2     R_2_5_17_1     R_2_5_17_2     R_2_5_18_1     R_2_5_18_2     R_2_5_19_1     R_2_5_19_2
      R_2_5_1_1      R_2_5_1_2     R_2_5_20_1     R_2_5_20_2     R_2_5_21_1     R_2_5_21_2     R_2_5_22_1     R_2_5_22_2
     R_2_5_23_1     R_2_5_23_2     R_2_5_24_1     R_2_5_24_2     R_2_5_25_1     R_2_5_25_2     R_2_5_26_1     R_2_5_26_2
     R_2_5_27_1     R_2_5_27_2     R_2_5_28_1     R_2_5_28_2     R_2_5_29_1     R_2_5_29_2      R_2_5_2_1      R_2_5_2_2
     R_2_5_30_1     R_2_5_30_2     R_2_5_31_1     R_2_5_31_2     R_2_5_32_1     R_2_5_32_2     R_2_5_33_1     R_2_5_33_2
     R_2_5_34_1     R_2_5_34_2     R_2_5_35_1     R_2_5_35_2     R_2_5_36_1     R_2_5_36_2     R_2_5_37_1     R_2_5_37_2
     R_2_5_38_1     R_2_5_38_2     R_2_5_39_2      R_2_5_3_1      R_2_5_3_2      R_2_5_4_1      R_2_5_4_2      R_2_5_5_1
      R_2_5_5_2      R_2_5_6_1      R_2_5_6_2      R_2_5_7_1      R_2_5_7_2      R_2_5_8_1      R_2_5_8_2      R_2_5_9_1
      R_2_5_9_2      R_2_6_0_1      R_2_6_0_2     R_2_6_10_1     R_2_6_10_2     R_2_6_11_1     R_2_6_11_2     R_2_6_12_1
     R_2_6_12_2     R_2_6_13_1     R_2_6_13_2     R_2_6_14_1     R_2_6_14_2     R_2_6_15_1     R_2_6_15_2     R_2_6_16_1
     R_2_6_16_2     R_2_6_17_1     R_2_6_17_2     R_2_6_18_1     R_2_6_18_2     R_2_6_19_1     R_2_6_19_2      R_2_6_1_1
      R_2_6_1_2     R_2_6_20_1     R_2_6_20_2     R_2_6_21_1     R_2_6_21_2     R_2_6_22_1     R_2_6_22_2     R_2_6_23_1
     R_2_6_23_2     R_2_6_24_1     R_2_6_24_2     R_2_6_25_1     R_2_6_25_2     R_2_6_26_1     R_2_6_26_2     R_2_6_27_1
     R_2_6_27_2     R_2_6_28_1     R_2_6_28_2     R_2_6_29_1     R_2_6_29_2      R_2_6_2_1      R_2_6_2_2     R_2_6_30_1
     R_2_6_30_2     R_2_6_31_1     R_2_6_31_2     R_2_6_32_1     R_2_6_32_2     R_2_6_33_1     R_2_6_33_2     R_2_6_34_1
     R_2_6_34_2     R_2_6_35_1     R_2_6_35_2     R_2_6_36_1     R_2_6_36_2     R_2_6_37_1     R_2_6_37_2     R_2_6_38_1
     R_2_6_38_2     R_2_6_39_2      R_2_6_3_1      R_2_6_3_2      R_2_6_4_1      R_2_6_4_2      R_2_6_5_1      R_2_6_5_2
      R_2_6_6_1      R_2_6_6_2      R_2_6_7_1      R_2_6_7_2      R_2_6_8_1      R_2_6_8_2      R_2_6_9_1      R_2_6_9_2
      R_2_7_0_1      R_2_7_0_2     R_2_7_10_1     R_2_7_10_2     R_2_7_11_1     R_2_7_11_2     R_2_7_12_1     R_2_7_12_2
     R_2_7_13_1     R_2_7_13_2     R_2_7_14_1     R_2_7_14_2     R_2_7_15_1     R_2_7_15_2     R_2_7_16_1     R_2_7_16_2
     R_2_7_17_1     R_2_7_17_2     R_2_7_18_1     R_2_7_18_2     R_2_7_19_1     R_2_7_19_2      R_2_7_1_1      R_2_7_1_2
     R_2_7_20_1     R_2_7_20_2     R_2_7_21_1     R_2_7_21_2     R_2_7_22_1     R_2_7_22_2     R_2_7_23_1     R_2_7_23_2
     R_2_7_24_1     R_2_7_24_2     R_2_7_25_1     R_2_7_25_2     R_2_7_26_1     R_2_7_26_2     R_2_7_27_1     R_2_7_27_2
     R_2_7_28_1     R_2_7_28_2     R_2_7_29_1     R_2_7_29_2      R_2_7_2_1      R_2_7_2_2     R_2_7_30_1     R_2_7_30_2
     R_2_7_31_1     R_2_7_31_2     R_2_7_32_1     R_2_7_32_2     R_2_7_33_1     R_2_7_33_2     R_2_7_34_1     R_2_7_34_2
     R_2_7_35_1     R_2_7_35_2     R_2_7_36_1     R_2_7_36_2     R_2_7_37_1     R_2_7_37_2     R_2_7_38_1     R_2_7_38_2
     R_2_7_39_2      R_2_7_3_1      R_2_7_3_2      R_2_7_4_1      R_2_7_4_2      R_2_7_5_1      R_2_7_5_2      R_2_7_6_1
      R_2_7_6_2      R_2_7_7_1      R_2_7_7_2      R_2_7_8_1      R_2_7_8_2      R_2_7_9_1      R_2_7_9_2      R_2_8_0_1
      R_2_8_0_2     R_2_8_10_1     R_2_8_10_2     R_2_8_11_1     R_2_8_11_2     R_2_8_12_1     R_2_8_12_2     R_2_8_13_1
     R_2_8_13_2     R_2_8_14_1     R_2_8_14_2     R_2_8_15_1     R_2_8_15_2     R_2_8_16_1     R_2_8_16_2     R_2_8_17_1
     R_2_8_17_2     R_2_8_18_1     R_2_8_18_2     R_2_8_19_1     R_2_8_19_2      R_2_8_1_1      R_2_8_1_2     R_2_8_20_1
     R_2_8_20_2     R_2_8_21_1     R_2_8_21_2     R_2_8_22_1     R_2_8_22_2     R_2_8_23_1     R_2_8_23_2     R_2_8_24_1
     R_2_8_24_2     R_2_8_25_1     R_2_8_25_2     R_2_8_26_1     R_2_8_26_2     R_2_8_27_1     R_2_8_27_2     R_2_8_28_1
     R_2_8_28_2     R_2_8_29_1     R_2_8_29_2      R_2_8_2_1      R_2_8_2_2     R_2_8_30_1     R_2_8_30_2     R_2_8_31_1
     R_2_8_31_2     R_2_8_32_1     R_2_8_32_2     R_2_8_33_1     R_2_8_33_2     R_2_8_34_1     R_2_8_34_2     R_2_8_35_1
     R_2_8_35_2     R_2_8_36_1     R_2_8_36_2     R_2_8_37_1     R_2_8_37_2     R_2_8_38_1     R_2_8_38_2     R_2_8_39_2
      R_2_8_3_1      R_2_8_3_2      R_2_8_4_1      R_2_8_4_2      R_2_8_5_1      R_2_8_5_2      R_2_8_6_1      R_2_8_6_2
      R_2_8_7_1      R_2_8_7_2      R_2_8_8_1      R_2_8_8_2      R_2_8_9_1      R_2_8_9_2      R_2_9_0_1      R_2_9_0_2
     R_2_9_10_1     R_2_9_10_2     R_2_9_11_1     R_2_9_11_2     R_2_9_12_1     R_2_9_12_2     R_2_9_13_1     R_2_9_13_2
     R_2_9_14_1     R_2_9_14_2     R_2_9_15_1     R_2_9_15_2     R_2_9_16_1     R_2_9_16_2     R_2_9_17_1     R_2_9_17_2
     R_2_9_18_1     R_2_9_18_2     R_2_9_19_1     R_2_9_19_2      R_2_9_1_1      R_2_9_1_2     R_2_9_20_1     R_2_9_20_2
     R_2_9_21_1     R_2_9_21_2     R_2_9_22_1     R_2_9_22_2     R_2_9_23_1     R_2_9_23_2     R_2_9_24_1     R_2_9_24_2
     R_2_9_25_1     R_2_9_25_2     R_2_9_26_1     R_2_9_26_2     R_2_9_27_1     R_2_9_27_2     R_2_9_28_1     R_2_9_28_2
     R_2_9_29_1     R_2_9_29_2      R_2_9_2_1      R_2_9_2_2     R_2_9_30_1     R_2_9_30_2     R_2_9_31_1     R_2_9_31_2
     R_2_9_32_1     R_2_9_32_2     R_2_9_33_1     R_2_9_33_2     R_2_9_34_1     R_2_9_34_2     R_2_9_35_1     R_2_9_35_2
     R_2_9_36_1     R_2_9_36_2     R_2_9_37_1     R_2_9_37_2     R_2_9_38_1     R_2_9_38_2     R_2_9_39_2      R_2_9_3_1
      R_2_9_3_2      R_2_9_4_1      R_2_9_4_2      R_2_9_5_1      R_2_9_5_2      R_2_9_6_1      R_2_9_6_2      R_2_9_7_1
      R_2_9_7_2      R_2_9_8_1      R_2_9_8_2      R_2_9_9_1      R_2_9_9_2R_HS_AMB_IN_BOTR_HS_AMB_IN_LEFTR_HS_AMB_IN_RIGHT
R_HS_AMB_IN_TOPR_HS_AMB_OUT_BOTR_HS_AMB_OUT_LEFTR_HS_AMB_OUT_RIGHTR_HS_AMB_OUT_TOP    R_HS_HS_BOT   R_HS_HS_LEFT  R_HS_HS_RIGHT
    R_HS_HS_TOP R_SP_HS_IN_BOTR_SP_HS_IN_LEFTR_SP_HS_IN_RIGHT R_SP_HS_IN_TOP    RHS_2_0_0_1    RHS_2_0_0_2   RHS_2_0_10_2
   RHS_2_0_11_2   RHS_2_0_12_2   RHS_2_0_13_2   RHS_2_0_14_2   RHS_2_0_15_2   RHS_2_0_16_2   RHS_2_0_17_2   RHS_2_0_18_2
   RHS_2_0_19_2    RHS_2_0_1_2   RHS_2_0_20_2   RHS_2_0_21_2   RHS_2_0_22_2   RHS_2_0_23_2   RHS_2_0_24_2   RHS_2_0_25_2
   RHS_2_0_26_2   RHS_2_0_27_2   RHS_2_0_28_2   RHS_2_0_29_2    RHS_2_0_2_2   RHS_2_0_30_2   RHS_2_0_31_2   RHS_2_0_32_2
   RHS_2_0_33_2   RHS_2_0_34_2   RHS_2_0_35_2   RHS_2_0_36_2   RHS_2_0_37_2   RHS_2_0_38_2   RHS_2_0_39_1   RHS_2_0_39_2
    RHS_2_0_3_2    RHS_2_0_4_2    RHS_2_0_5_2    RHS_2_0_6_2    RHS_2_0_7_2    RHS_2_0_8_2    RHS_2_0_9_2   RHS_2_10_0_1
  RHS_2_10_39_1   RHS_2_11_0_1  RHS_2_11_39_1   RHS_2_12_0_1  RHS_2_12_39_1   RHS_2_13_0_1  RHS_2_13_39_1   RHS_2_14_0_1
  RHS_2_14_39_1   RHS_2_15_0_1  RHS_2_15_39_1   RHS_2_16_0_1  RHS_2_16_39_1   RHS_2_17_0_1  RHS_2_17_39_1   RHS_2_18_0_1
  RHS_2_18_39_1   RHS_2_19_0_1  RHS_2_19_39_1    RHS_2_1_0_1   RHS_2_1_39_1   RHS_2_20_0_1  RHS_2_20_39_1   RHS_2_21_0_1
  RHS_2_21_39_1   RHS_2_22_0_1  RHS_2_22_39_1   RHS_2_23_0_1  RHS_2_23_39_1   RHS_2_24_0_1  RHS_2_24_39_1   RHS_2_25_0_1
  RHS_2_25_39_1   RHS_2_26_0_1  RHS_2_26_39_1   RHS_2_27_0_1  RHS_2_27_39_1   RHS_2_28_0_1  RHS_2_28_39_1   RHS_2_29_0_1
  RHS_2_29_39_1    RHS_2_2_0_1   RHS_2_2_39_1   RHS_2_30_0_1  RHS_2_30_39_1   RHS_2_31_0_1  RHS_2_31_39_1   RHS_2_32_0_1
  RHS_2_32_39_1   RHS_2_33_0_1  RHS_2_33_39_1   RHS_2_34_0_1  RHS_2_34_39_1   RHS_2_35_0_1  RHS_2_35_39_1   RHS_2_36_0_1
  RHS_2_36_39_1   RHS_2_37_0_1  RHS_2_37_39_1   RHS_2_38_0_1  RHS_2_38_39_1   RHS_2_39_0_1   RHS_2_39_0_2  RHS_2_39_10_2
  RHS_2_39_11_2  RHS_2_39_12_2  RHS_2_39_13_2  RHS_2_39_14_2  RHS_2_39_15_2  RHS_2_39_16_2  RHS_2_39_17_2  RHS_2_39_18_2
  RHS_2_39_19_2   RHS_2_39_1_2  RHS_2_39_20_2  RHS_2_39_21_2  RHS_2_39_22_2  RHS_2_39_23_2  RHS_2_39_24_2  RHS_2_39_25_2
  RHS_2_39_26_2  RHS_2_39_27_2  RHS_2_39_28_2  RHS_2_39_29_2   RHS_2_39_2_2  RHS_2_39_30_2  RHS_2_39_31_2  RHS_2_39_32_2
  RHS_2_39_33_2  RHS_2_39_34_2  RHS_2_39_35_2  RHS_2_39_36_2  RHS_2_39_37_2  RHS_2_39_38_2  RHS_2_39_39_1  RHS_2_39_39_2
   RHS_2_39_3_2   RHS_2_39_4_2   RHS_2_39_5_2   RHS_2_39_6_2   RHS_2_39_7_2   RHS_2_39_8_2   RHS_2_39_9_2    RHS_2_3_0_1
   RHS_2_3_39_1    RHS_2_4_0_1   RHS_2_4_39_1    RHS_2_5_0_1   RHS_2_5_39_1    RHS_2_6_0_1   RHS_2_6_39_1    RHS_2_7_0_1
   RHS_2_7_39_1    RHS_2_8_0_1   RHS_2_8_39_1    RHS_2_9_0_1   RHS_2_9_39_1  RSP_1_37_39_1   RSP_1_38_0_1  RSP_1_38_39_1
   RSP_1_39_0_1   RSP_1_39_0_2  RSP_1_39_10_2  RSP_1_39_11_2  RSP_1_39_12_2  RSP_1_39_13_2  RSP_1_39_14_2  RSP_1_39_15_2
  RSP_1_39_16_2  RSP_1_39_17_2  RSP_1_39_18_2  RSP_1_39_19_2   RSP_1_39_1_2  RSP_1_39_20_2  RSP_1_39_21_2  RSP_1_39_22_2
  RSP_1_39_23_2  RSP_1_39_24_2  RSP_1_39_25_2  RSP_1_39_26_2  RSP_1_39_27_2  RSP_1_39_28_2  RSP_1_39_29_2   RSP_1_39_2_2
  RSP_1_39_30_2  RSP_1_39_31_2  RSP_1_39_32_2  RSP_1_39_33_2  RSP_1_39_34_2  RSP_1_39_35_2  RSP_1_39_36_2  RSP_1_39_37_2
  RSP_1_39_38_2  RSP_1_39_39_1  RSP_1_39_39_2   RSP_1_39_3_2   RSP_1_39_4_2   RSP_1_39_5_2   RSP_1_39_6_2   RSP_1_39_7_2
   RSP_1_39_8_2   RSP_1_39_9_2
         model R level 1 (Resistor)R level 1 (Resistor)R level 1 (Resistor)R level 1 (Resistor)R level 1 (Resistor)R level 1 (Resistor)R level 1 (Resistor)
R level 1 (Resistor)R level 1 (Resistor)R level 1 (Resistor)R level 1 (Resistor)R level 1 (Resistor)R level 1 (Resistor)R level 1 (Resistor)R level 1 (Resistor)
R level 1 (Resistor)R level 1 (Resistor)R level 1 (Resistor)R level 1 (Resistor)R level 1 (Resistor)R level 1 (Resistor)R level 1 (Resistor)R level 1 (Resistor)
R level 1 (Resistor)R level 1 (Resistor)R level 1 (Resistor)R level 1 (Resistor)R level 1 (Resistor)R level 1 (Resistor)R level 1 (Resistor)R level 1 (Resistor)
R level 1 (Resistor)R level 1 (Resistor)R level 1 (Resistor)R level 1 (Resistor)R level 1 (Resistor)R level 1 (Resistor)R level 1 (Resistor)R level 1 (Resistor)
R level 1 (Resistor)R level 1 (Resistor)R level 1 (Resistor)R level 1 (Resistor)R level 1 (Resistor)R level 1 (Resistor)R level 1 (Resistor)R level 1 (Resistor)
R level 1 (Resistor)R level 1 (Resistor)R level 1 (Resistor)R level 1 (Resistor)R level 1 (Resistor)R level 1 (Resistor)R level 1 (Resistor)R level 1 (Resistor)
R level 1 (Resistor)R level 1 (Resistor)R level 1 (Resistor)R level 1 (Resistor)R level 1 (Resistor)R level 1 (Resistor)R level 1 (Resistor)R level 1 (Resistor)
R level 1 (Resistor)R level 1 (Resistor)R level 1 (Resistor)R level 1 (Resistor)R level 1 (Resistor)R level 1 (Resistor)R level 1 (Resistor)R level 1 (Resistor)
R level 1 (Resistor)R level 1 (Resistor)R level 1 (Resistor)R level 1 (Resistor)R level 1 (Resistor)R level 1 (Resistor)R level 1 (Resistor)R level 1 (Resistor)
R level 1 (Resistor)R level 1 (Resistor)R level 1 (Resistor)R level 1 (Resistor)R level 1 (Resistor)R level 1 (Resistor)R level 1 (Resistor)R level 1 (Resistor)
R level 1 (Resistor)R level 1 (Resistor)R level 1 (Resistor)R level 1 (Resistor)R level 1 (Resistor)R level 1 (Resistor)R level 1 (Resistor)R level 1 (Resistor)
R level 1 (Resistor)R level 1 (Resistor)R level 1 (Resistor)R level 1 (Resistor)R level 1 (Resistor)R level 1 (Resistor)R level 1 (Resistor)R level 1 (Resistor)
R level 1 (Resistor)R level 1 (Resistor)R level 1 (Resistor)R level 1 (Resistor)R level 1 (Resistor)R level 1 (Resistor)R level 1 (Resistor)R level 1 (Resistor)
R level 1 (Resistor)R level 1 (Resistor)R level 1 (Resistor)R level 1 (Resistor)R level 1 (Resistor)R level 1 (Resistor)R level 1 (Resistor)R level 1 (Resistor)
R level 1 (Resistor)R level 1 (Resistor)R level 1 (Resistor)R level 1 (Resistor)R level 1 (Resistor)R level 1 (Resistor)R level 1 (Resistor)R level 1 (Resistor)
R level 1 (Resistor)R level 1 (Resistor)R level 1 (Resistor)R level 1 (Resistor)R level 1 (Resistor)R level 1 (Resistor)R level 1 (Resistor)R level 1 (Resistor)
R level 1 (Resistor)R level 1 (Resistor)R level 1 (Resistor)R level 1 (Resistor)R level 1 (Resistor)R level 1 (Resistor)R level 1 (Resistor)R level 1 (Resistor)
R level 1 (Resistor)R level 1 (Resistor)R level 1 (Resistor)R level 1 (Resistor)R level 1 (Resistor)R level 1 (Resistor)R level 1 (Resistor)R level 1 (Resistor)
R level 1 (Resistor)R level 1 (Resistor)R level 1 (Resistor)R level 1 (Resistor)R level 1 (Resistor)R level 1 (Resistor)R level 1 (Resistor)R level 1 (Resistor)
R level 1 (Resistor)R level 1 (Resistor)R level 1 (Resistor)R level 1 (Resistor)R level 1 (Resistor)R level 1 (Resistor)R level 1 (Resistor)R level 1 (Resistor)
R level 1 (Resistor)R level 1 (Resistor)R level 1 (Resistor)R level 1 (Resistor)R level 1 (Resistor)R level 1 (Resistor)R level 1 (Resistor)R level 1 (Resistor)
R level 1 (Resistor)R level 1 (Resistor)R level 1 (Resistor)R level 1 (Resistor)R level 1 (Resistor)R level 1 (Resistor)R level 1 (Resistor)R level 1 (Resistor)
R level 1 (Resistor)R level 1 (Resistor)R level 1 (Resistor)R level 1 (Resistor)R level 1 (Resistor)R level 1 (Resistor)R level 1 (Resistor)R level 1 (Resistor)
R level 1 (Resistor)R level 1 (Resistor)R level 1 (Resistor)R level 1 (Resistor)R level 1 (Resistor)R level 1 (Resistor)R level 1 (Resistor)R level 1 (Resistor)
R level 1 (Resistor)R level 1 (Resistor)R level 1 (Resistor)R level 1 (Resistor)R level 1 (Resistor)R level 1 (Resistor)R level 1 (Resistor)R level 1 (Resistor)
R level 1 (Resistor)R level 1 (Resistor)R level 1 (Resistor)R level 1 (Resistor)R level 1 (Resistor)R level 1 (Resistor)R level 1 (Resistor)R level 1 (Resistor)
R level 1 (Resistor)R level 1 (Resistor)R level 1 (Resistor)R level 1 (Resistor)R level 1 (Resistor)R level 1 (Resistor)R level 1 (Resistor)R level 1 (Resistor)
R level 1 (Resistor)R level 1 (Resistor)R level 1 (Resistor)R level 1 (Resistor)R level 1 (Resistor)R level 1 (Resistor)R level 1 (Resistor)R level 1 (Resistor)
R level 1 (Resistor)R level 1 (Resistor)R level 1 (Resistor)R level 1 (Resistor)R level 1 (Resistor)R level 1 (Resistor)R level 1 (Resistor)R level 1 (Resistor)
R level 1 (Resistor)R level 1 (Resistor)R level 1 (Resistor)R level 1 (Resistor)R level 1 (Resistor)R level 1 (Resistor)R level 1 (Resistor)R level 1 (Resistor)
R level 1 (Resistor)R level 1 (Resistor)R level 1 (Resistor)R level 1 (Resistor)R level 1 (Resistor)R level 1 (Resistor)R level 1 (Resistor)R level 1 (Resistor)
R level 1 (Resistor)R level 1 (Resistor)R level 1 (Resistor)R level 1 (Resistor)R level 1 (Resistor)R level 1 (Resistor)R level 1 (Resistor)R level 1 (Resistor)
R level 1 (Resistor)R level 1 (Resistor)R level 1 (Resistor)R level 1 (Resistor)R level 1 (Resistor)R level 1 (Resistor)R level 1 (Resistor)R level 1 (Resistor)
R level 1 (Resistor)R level 1 (Resistor)R level 1 (Resistor)R level 1 (Resistor)R level 1 (Resistor)R level 1 (Resistor)R level 1 (Resistor)R level 1 (Resistor)
R level 1 (Resistor)R level 1 (Resistor)R level 1 (Resistor)R level 1 (Resistor)R level 1 (Resistor)R level 1 (Resistor)R level 1 (Resistor)R level 1 (Resistor)
R level 1 (Resistor)R level 1 (Resistor)R level 1 (Resistor)R level 1 (Resistor)R level 1 (Resistor)R level 1 (Resistor)R level 1 (Resistor)R level 1 (Resistor)
R level 1 (Resistor)R level 1 (Resistor)R level 1 (Resistor)R level 1 (Resistor)R level 1 (Resistor)R level 1 (Resistor)R level 1 (Resistor)R level 1 (Resistor)
R level 1 (Resistor)R level 1 (Resistor)R level 1 (Resistor)R level 1 (Resistor)R level 1 (Resistor)R level 1 (Resistor)R level 1 (Resistor)R level 1 (Resistor)
R level 1 (Resistor)R level 1 (Resistor)R level 1 (Resistor)R level 1 (Resistor)R level 1 (Resistor)R level 1 (Resistor)R level 1 (Resistor)R level 1 (Resistor)
R level 1 (Resistor)R level 1 (Resistor)R level 1 (Resistor)R level 1 (Resistor)R level 1 (Resistor)R level 1 (Resistor)R level 1 (Resistor)R level 1 (Resistor)
R level 1 (Resistor)R level 1 (Resistor)R level 1 (Resistor)R level 1 (Resistor)R level 1 (Resistor)R level 1 (Resistor)R level 1 (Resistor)R level 1 (Resistor)
R level 1 (Resistor)R level 1 (Resistor)R level 1 (Resistor)R level 1 (Resistor)R level 1 (Resistor)R level 1 (Resistor)R level 1 (Resistor)R level 1 (Resistor)
R level 1 (Resistor)R level 1 (Resistor)R level 1 (Resistor)R level 1 (Resistor)R level 1 (Resistor)R level 1 (Resistor)R level 1 (Resistor)R level 1 (Resistor)
R level 1 (Resistor)R level 1 (Resistor)R level 1 (Resistor)R level 1 (Resistor)R level 1 (Resistor)R level 1 (Resistor)R level 1 (Resistor)R level 1 (Resistor)
R level 1 (Resistor)R level 1 (Resistor)R level 1 (Resistor)R level 1 (Resistor)R level 1 (Resistor)R level 1 (Resistor)R level 1 (Resistor)R level 1 (Resistor)
R level 1 (Resistor)R level 1 (Resistor)R level 1 (Resistor)R level 1 (Resistor)R level 1 (Resistor)R level 1 (Resistor)R level 1 (Resistor)R level 1 (Resistor)
R level 1 (Resistor)R level 1 (Resistor)R level 1 (Resistor)R level 1 (Resistor)R level 1 (Resistor)R level 1 (Resistor)R level 1 (Resistor)R level 1 (Resistor)
R level 1 (Resistor)R level 1 (Resistor)R level 1 (Resistor)R level 1 (Resistor)R level 1 (Resistor)R level 1 (Resistor)R level 1 (Resistor)R level 1 (Resistor)
R level 1 (Resistor)R level 1 (Resistor)R level 1 (Resistor)R level 1 (Resistor)R level 1 (Resistor)R level 1 (Resistor)R level 1 (Resistor)R level 1 (Resistor)
R level 1 (Resistor)R level 1 (Resistor)R level 1 (Resistor)R level 1 (Resistor)R level 1 (Resistor)R level 1 (Resistor)R level 1 (Resistor)R level 1 (Resistor)
R level 1 (Resistor)R level 1 (Resistor)R level 1 (Resistor)R level 1 (Resistor)R level 1 (Resistor)R level 1 (Resistor)R level 1 (Resistor)R level 1 (Resistor)
R level 1 (Resistor)R level 1 (Resistor)R level 1 (Resistor)R level 1 (Resistor)R level 1 (Resistor)R level 1 (Resistor)R level 1 (Resistor)R level 1 (Resistor)
R level 1 (Resistor)R level 1 (Resistor)R level 1 (Resistor)R level 1 (Resistor)R level 1 (Resistor)R level 1 (Resistor)R level 1 (Resistor)R level 1 (Resistor)
R level 1 (Resistor)R level 1 (Resistor)R level 1 (Resistor)R level 1 (Resistor)R level 1 (Resistor)R level 1 (Resistor)R level 1 (Resistor)R level 1 (Resistor)
R level 1 (Resistor)R level 1 (Resistor)R level 1 (Resistor)R level 1 (Resistor)R level 1 (Resistor)R level 1 (Resistor)R level 1 (Resistor)R level 1 (Resistor)
R level 1 (Resistor)R level 1 (Resistor)R level 1 (Resistor)R level 1 (Resistor)R level 1 (Resistor)R level 1 (Resistor)R level 1 (Resistor)R level 1 (Resistor)
R level 1 (Resistor)R level 1 (Resistor)R level 1 (Resistor)R level 1 (Resistor)R level 1 (Resistor)R level 1 (Resistor)R level 1 (Resistor)R level 1 (Resistor)
R level 1 (Resistor)R level 1 (Resistor)R level 1 (Resistor)R level 1 (Resistor)R level 1 (Resistor)R level 1 (Resistor)R level 1 (Resistor)R level 1 (Resistor)
R level 1 (Resistor)R level 1 (Resistor)R level 1 (Resistor)R level 1 (Resistor)R level 1 (Resistor)R level 1 (Resistor)R level 1 (Resistor)R level 1 (Resistor)
R level 1 (Resistor)R level 1 (Resistor)R level 1 (Resistor)R level 1 (Resistor)R level 1 (Resistor)R level 1 (Resistor)R level 1 (Resistor)R level 1 (Resistor)
R level 1 (Resistor)R level 1 (Resistor)R level 1 (Resistor)R level 1 (Resistor)R level 1 (Resistor)R level 1 (Resistor)R level 1 (Resistor)R level 1 (Resistor)
R level 1 (Resistor)R level 1 (Resistor)R level 1 (Resistor)R level 1 (Resistor)R level 1 (Resistor)R level 1 (Resistor)R level 1 (Resistor)R level 1 (Resistor)
R level 1 (Resistor)R level 1 (Resistor)R level 1 (Resistor)R level 1 (Resistor)R level 1 (Resistor)R level 1 (Resistor)R level 1 (Resistor)R level 1 (Resistor)
R level 1 (Resistor)R level 1 (Resistor)R level 1 (Resistor)R level 1 (Resistor)R level 1 (Resistor)R level 1 (Resistor)R level 1 (Resistor)R level 1 (Resistor)
R level 1 (Resistor)R level 1 (Resistor)R level 1 (Resistor)R level 1 (Resistor)R level 1 (Resistor)R level 1 (Resistor)R level 1 (Resistor)R level 1 (Resistor)
R level 1 (Resistor)R level 1 (Resistor)R level 1 (Resistor)R level 1 (Resistor)R level 1 (Resistor)R level 1 (Resistor)R level 1 (Resistor)R level 1 (Resistor)
R level 1 (Resistor)R level 1 (Resistor)R level 1 (Resistor)R level 1 (Resistor)R level 1 (Resistor)R level 1 (Resistor)R level 1 (Resistor)R level 1 (Resistor)
R level 1 (Resistor)R level 1 (Resistor)R level 1 (Resistor)R level 1 (Resistor)R level 1 (Resistor)R level 1 (Resistor)R level 1 (Resistor)R level 1 (Resistor)
R level 1 (Resistor)R level 1 (Resistor)R level 1 (Resistor)R level 1 (Resistor)R level 1 (Resistor)R level 1 (Resistor)R level 1 (Resistor)R level 1 (Resistor)
R level 1 (Resistor)R level 1 (Resistor)R level 1 (Resistor)R level 1 (Resistor)R level 1 (Resistor)R level 1 (Resistor)R level 1 (Resistor)R level 1 (Resistor)
R level 1 (Resistor)R level 1 (Resistor)R level 1 (Resistor)R level 1 (Resistor)R level 1 (Resistor)R level 1 (Resistor)R level 1 (Resistor)R level 1 (Resistor)
R level 1 (Resistor)R level 1 (Resistor)R level 1 (Resistor)R level 1 (Resistor)R level 1 (Resistor)R level 1 (Resistor)R level 1 (Resistor)R level 1 (Resistor)
R level 1 (Resistor)R level 1 (Resistor)R level 1 (Resistor)R level 1 (Resistor)R level 1 (Resistor)R level 1 (Resistor)R level 1 (Resistor)R level 1 (Resistor)
R level 1 (Resistor)R level 1 (Resistor)R level 1 (Resistor)R level 1 (Resistor)R level 1 (Resistor)R level 1 (Resistor)R level 1 (Resistor)R level 1 (Resistor)
R level 1 (Resistor)R level 1 (Resistor)R level 1 (Resistor)R level 1 (Resistor)R level 1 (Resistor)R level 1 (Resistor)R level 1 (Resistor)R level 1 (Resistor)
R level 1 (Resistor)R level 1 (Resistor)R level 1 (Resistor)R level 1 (Resistor)R level 1 (Resistor)R level 1 (Resistor)R level 1 (Resistor)R level 1 (Resistor)
R level 1 (Resistor)R level 1 (Resistor)R level 1 (Resistor)R level 1 (Resistor)R level 1 (Resistor)R level 1 (Resistor)R level 1 (Resistor)R level 1 (Resistor)
R level 1 (Resistor)R level 1 (Resistor)R level 1 (Resistor)R level 1 (Resistor)R level 1 (Resistor)R level 1 (Resistor)R level 1 (Resistor)R level 1 (Resistor)
R level 1 (Resistor)R level 1 (Resistor)R level 1 (Resistor)R level 1 (Resistor)R level 1 (Resistor)R level 1 (Resistor)R level 1 (Resistor)R level 1 (Resistor)
R level 1 (Resistor)R level 1 (Resistor)R level 1 (Resistor)R level 1 (Resistor)R level 1 (Resistor)R level 1 (Resistor)R level 1 (Resistor)R level 1 (Resistor)
R level 1 (Resistor)R level 1 (Resistor)R level 1 (Resistor)R level 1 (Resistor)R level 1 (Resistor)R level 1 (Resistor)R level 1 (Resistor)R level 1 (Resistor)
R level 1 (Resistor)R level 1 (Resistor)R level 1 (Resistor)R level 1 (Resistor)R level 1 (Resistor)R level 1 (Resistor)R level 1 (Resistor)R level 1 (Resistor)
R level 1 (Resistor)R level 1 (Resistor)R level 1 (Resistor)R level 1 (Resistor)R level 1 (Resistor)R level 1 (Resistor)R level 1 (Resistor)R level 1 (Resistor)
R level 1 (Resistor)R level 1 (Resistor)R level 1 (Resistor)R level 1 (Resistor)R level 1 (Resistor)R level 1 (Resistor)R level 1 (Resistor)R level 1 (Resistor)
R level 1 (Resistor)R level 1 (Resistor)R level 1 (Resistor)R level 1 (Resistor)R level 1 (Resistor)R level 1 (Resistor)R level 1 (Resistor)R level 1 (Resistor)
R level 1 (Resistor)R level 1 (Resistor)R level 1 (Resistor)R level 1 (Resistor)R level 1 (Resistor)R level 1 (Resistor)R level 1 (Resistor)R level 1 (Resistor)
R level 1 (Resistor)R level 1 (Resistor)R level 1 (Resistor)R level 1 (Resistor)R level 1 (Resistor)R level 1 (Resistor)R level 1 (Resistor)R level 1 (Resistor)
R level 1 (Resistor)R level 1 (Resistor)R level 1 (Resistor)R level 1 (Resistor)R level 1 (Resistor)R level 1 (Resistor)R level 1 (Resistor)R level 1 (Resistor)
R level 1 (Resistor)R level 1 (Resistor)R level 1 (Resistor)R level 1 (Resistor)R level 1 (Resistor)R level 1 (Resistor)R level 1 (Resistor)R level 1 (Resistor)
R level 1 (Resistor)R level 1 (Resistor)R level 1 (Resistor)R level 1 (Resistor)R level 1 (Resistor)R level 1 (Resistor)R level 1 (Resistor)R level 1 (Resistor)
R level 1 (Resistor)R level 1 (Resistor)R level 1 (Resistor)R level 1 (Resistor)R level 1 (Resistor)R level 1 (Resistor)R level 1 (Resistor)R level 1 (Resistor)
R level 1 (Resistor)R level 1 (Resistor)R level 1 (Resistor)R level 1 (Resistor)R level 1 (Resistor)R level 1 (Resistor)R level 1 (Resistor)R level 1 (Resistor)
R level 1 (Resistor)R level 1 (Resistor)R level 1 (Resistor)R level 1 (Resistor)R level 1 (Resistor)R level 1 (Resistor)R level 1 (Resistor)R level 1 (Resistor)
R level 1 (Resistor)R level 1 (Resistor)R level 1 (Resistor)R level 1 (Resistor)R level 1 (Resistor)R level 1 (Resistor)R level 1 (Resistor)R level 1 (Resistor)
R level 1 (Resistor)R level 1 (Resistor)R level 1 (Resistor)R level 1 (Resistor)R level 1 (Resistor)R level 1 (Resistor)R level 1 (Resistor)R level 1 (Resistor)
R level 1 (Resistor)R level 1 (Resistor)R level 1 (Resistor)R level 1 (Resistor)R level 1 (Resistor)R level 1 (Resistor)R level 1 (Resistor)R level 1 (Resistor)
R level 1 (Resistor)R level 1 (Resistor)R level 1 (Resistor)R level 1 (Resistor)R level 1 (Resistor)R level 1 (Resistor)R level 1 (Resistor)R level 1 (Resistor)
R level 1 (Resistor)R level 1 (Resistor)R level 1 (Resistor)R level 1 (Resistor)R level 1 (Resistor)R level 1 (Resistor)R level 1 (Resistor)R level 1 (Resistor)
R level 1 (Resistor)R level 1 (Resistor)R level 1 (Resistor)R level 1 (Resistor)R level 1 (Resistor)R level 1 (Resistor)R level 1 (Resistor)R level 1 (Resistor)
R level 1 (Resistor)R level 1 (Resistor)R level 1 (Resistor)R level 1 (Resistor)R level 1 (Resistor)R level 1 (Resistor)R level 1 (Resistor)R level 1 (Resistor)
R level 1 (Resistor)R level 1 (Resistor)R level 1 (Resistor)R level 1 (Resistor)R level 1 (Resistor)R level 1 (Resistor)R level 1 (Resistor)R level 1 (Resistor)
R level 1 (Resistor)R level 1 (Resistor)R level 1 (Resistor)R level 1 (Resistor)R level 1 (Resistor)R level 1 (Resistor)R level 1 (Resistor)R level 1 (Resistor)
R level 1 (Resistor)R level 1 (Resistor)R level 1 (Resistor)R level 1 (Resistor)R level 1 (Resistor)R level 1 (Resistor)R level 1 (Resistor)R level 1 (Resistor)
R level 1 (Resistor)R level 1 (Resistor)R level 1 (Resistor)R level 1 (Resistor)R level 1 (Resistor)R level 1 (Resistor)R level 1 (Resistor)R level 1 (Resistor)
R level 1 (Resistor)R level 1 (Resistor)R level 1 (Resistor)R level 1 (Resistor)R level 1 (Resistor)R level 1 (Resistor)R level 1 (Resistor)R level 1 (Resistor)
R level 1 (Resistor)R level 1 (Resistor)R level 1 (Resistor)R level 1 (Resistor)R level 1 (Resistor)R level 1 (Resistor)R level 1 (Resistor)R level 1 (Resistor)
R level 1 (Resistor)R level 1 (Resistor)R level 1 (Resistor)R level 1 (Resistor)R level 1 (Resistor)R level 1 (Resistor)R level 1 (Resistor)R level 1 (Resistor)
R level 1 (Resistor)R level 1 (Resistor)R level 1 (Resistor)R level 1 (Resistor)R level 1 (Resistor)R level 1 (Resistor)R level 1 (Resistor)R level 1 (Resistor)
R level 1 (Resistor)R level 1 (Resistor)R level 1 (Resistor)R level 1 (Resistor)R level 1 (Resistor)R level 1 (Resistor)R level 1 (Resistor)R level 1 (Resistor)
R level 1 (Resistor)R level 1 (Resistor)R level 1 (Resistor)R level 1 (Resistor)R level 1 (Resistor)R level 1 (Resistor)R level 1 (Resistor)R level 1 (Resistor)
R level 1 (Resistor)R level 1 (Resistor)R level 1 (Resistor)R level 1 (Resistor)R level 1 (Resistor)R level 1 (Resistor)R level 1 (Resistor)R level 1 (Resistor)
R level 1 (Resistor)R level 1 (Resistor)R level 1 (Resistor)R level 1 (Resistor)R level 1 (Resistor)R level 1 (Resistor)R level 1 (Resistor)R level 1 (Resistor)
R level 1 (Resistor)R level 1 (Resistor)R level 1 (Resistor)R level 1 (Resistor)R level 1 (Resistor)R level 1 (Resistor)R level 1 (Resistor)R level 1 (Resistor)
R level 1 (Resistor)R level 1 (Resistor)R level 1 (Resistor)R level 1 (Resistor)R level 1 (Resistor)R level 1 (Resistor)R level 1 (Resistor)R level 1 (Resistor)
R level 1 (Resistor)R level 1 (Resistor)R level 1 (Resistor)R level 1 (Resistor)R level 1 (Resistor)R level 1 (Resistor)R level 1 (Resistor)R level 1 (Resistor)
R level 1 (Resistor)R level 1 (Resistor)R level 1 (Resistor)R level 1 (Resistor)R level 1 (Resistor)R level 1 (Resistor)R level 1 (Resistor)R level 1 (Resistor)
R level 1 (Resistor)R level 1 (Resistor)R level 1 (Resistor)R level 1 (Resistor)R level 1 (Resistor)R level 1 (Resistor)R level 1 (Resistor)R level 1 (Resistor)
R level 1 (Resistor)R level 1 (Resistor)R level 1 (Resistor)R level 1 (Resistor)R level 1 (Resistor)R level 1 (Resistor)R level 1 (Resistor)R level 1 (Resistor)
R level 1 (Resistor)R level 1 (Resistor)R level 1 (Resistor)R level 1 (Resistor)R level 1 (Resistor)R level 1 (Resistor)R level 1 (Resistor)R level 1 (Resistor)
R level 1 (Resistor)R level 1 (Resistor)R level 1 (Resistor)R level 1 (Resistor)R level 1 (Resistor)R level 1 (Resistor)R level 1 (Resistor)R level 1 (Resistor)
R level 1 (Resistor)R level 1 (Resistor)R level 1 (Resistor)R level 1 (Resistor)R level 1 (Resistor)R level 1 (Resistor)R level 1 (Resistor)R level 1 (Resistor)
R level 1 (Resistor)R level 1 (Resistor)R level 1 (Resistor)R level 1 (Resistor)R level 1 (Resistor)R level 1 (Resistor)R level 1 (Resistor)R level 1 (Resistor)
R level 1 (Resistor)R level 1 (Resistor)R level 1 (Resistor)R level 1 (Resistor)R level 1 (Resistor)R level 1 (Resistor)R level 1 (Resistor)R level 1 (Resistor)
R level 1 (Resistor)R level 1 (Resistor)R level 1 (Resistor)R level 1 (Resistor)R level 1 (Resistor)R level 1 (Resistor)R level 1 (Resistor)R level 1 (Resistor)
R level 1 (Resistor)R level 1 (Resistor)R level 1 (Resistor)R level 1 (Resistor)R level 1 (Resistor)R level 1 (Resistor)R level 1 (Resistor)R level 1 (Resistor)
R level 1 (Resistor)R level 1 (Resistor)R level 1 (Resistor)R level 1 (Resistor)R level 1 (Resistor)R level 1 (Resistor)R level 1 (Resistor)R level 1 (Resistor)
R level 1 (Resistor)R level 1 (Resistor)R level 1 (Resistor)R level 1 (Resistor)R level 1 (Resistor)R level 1 (Resistor)R level 1 (Resistor)R level 1 (Resistor)
R level 1 (Resistor)R level 1 (Resistor)R level 1 (Resistor)R level 1 (Resistor)R level 1 (Resistor)R level 1 (Resistor)R level 1 (Resistor)R level 1 (Resistor)
R level 1 (Resistor)R level 1 (Resistor)R level 1 (Resistor)R level 1 (Resistor)R level 1 (Resistor)R level 1 (Resistor)R level 1 (Resistor)R level 1 (Resistor)
R level 1 (Resistor)R level 1 (Resistor)R level 1 (Resistor)R level 1 (Resistor)R level 1 (Resistor)R level 1 (Resistor)R level 1 (Resistor)R level 1 (Resistor)
R level 1 (Resistor)R level 1 (Resistor)R level 1 (Resistor)R level 1 (Resistor)R level 1 (Resistor)R level 1 (Resistor)R level 1 (Resistor)R level 1 (Resistor)
R level 1 (Resistor)R level 1 (Resistor)R level 1 (Resistor)R level 1 (Resistor)R level 1 (Resistor)R level 1 (Resistor)R level 1 (Resistor)R level 1 (Resistor)
R level 1 (Resistor)R level 1 (Resistor)R level 1 (Resistor)R level 1 (Resistor)R level 1 (Resistor)R level 1 (Resistor)R level 1 (Resistor)R level 1 (Resistor)
R level 1 (Resistor)R level 1 (Resistor)R level 1 (Resistor)R level 1 (Resistor)R level 1 (Resistor)R level 1 (Resistor)R level 1 (Resistor)R level 1 (Resistor)
R level 1 (Resistor)R level 1 (Resistor)R level 1 (Resistor)R level 1 (Resistor)R level 1 (Resistor)R level 1 (Resistor)R level 1 (Resistor)R level 1 (Resistor)
R level 1 (Resistor)R level 1 (Resistor)R level 1 (Resistor)R level 1 (Resistor)R level 1 (Resistor)R level 1 (Resistor)R level 1 (Resistor)R level 1 (Resistor)
R level 1 (Resistor)R level 1 (Resistor)R level 1 (Resistor)R level 1 (Resistor)R level 1 (Resistor)R level 1 (Resistor)R level 1 (Resistor)R level 1 (Resistor)
R level 1 (Resistor)R level 1 (Resistor)R level 1 (Resistor)R level 1 (Resistor)R level 1 (Resistor)R level 1 (Resistor)R level 1 (Resistor)R level 1 (Resistor)
R level 1 (Resistor)R level 1 (Resistor)R level 1 (Resistor)R level 1 (Resistor)R level 1 (Resistor)R level 1 (Resistor)R level 1 (Resistor)R level 1 (Resistor)
R level 1 (Resistor)R level 1 (Resistor)R level 1 (Resistor)R level 1 (Resistor)R level 1 (Resistor)R level 1 (Resistor)R level 1 (Resistor)R level 1 (Resistor)
R level 1 (Resistor)R level 1 (Resistor)R level 1 (Resistor)R level 1 (Resistor)R level 1 (Resistor)R level 1 (Resistor)R level 1 (Resistor)R level 1 (Resistor)
R level 1 (Resistor)R level 1 (Resistor)R level 1 (Resistor)R level 1 (Resistor)R level 1 (Resistor)R level 1 (Resistor)R level 1 (Resistor)R level 1 (Resistor)
R level 1 (Resistor)R level 1 (Resistor)R level 1 (Resistor)R level 1 (Resistor)R level 1 (Resistor)R level 1 (Resistor)R level 1 (Resistor)R level 1 (Resistor)
R level 1 (Resistor)R level 1 (Resistor)R level 1 (Resistor)R level 1 (Resistor)R level 1 (Resistor)R level 1 (Resistor)R level 1 (Resistor)R level 1 (Resistor)
R level 1 (Resistor)R level 1 (Resistor)R level 1 (Resistor)R level 1 (Resistor)R level 1 (Resistor)R level 1 (Resistor)R level 1 (Resistor)R level 1 (Resistor)
R level 1 (Resistor)R level 1 (Resistor)R level 1 (Resistor)R level 1 (Resistor)R level 1 (Resistor)R level 1 (Resistor)R level 1 (Resistor)R level 1 (Resistor)
R level 1 (Resistor)R level 1 (Resistor)R level 1 (Resistor)R level 1 (Resistor)R level 1 (Resistor)R level 1 (Resistor)R level 1 (Resistor)R level 1 (Resistor)
R level 1 (Resistor)R level 1 (Resistor)R level 1 (Resistor)R level 1 (Resistor)R level 1 (Resistor)R level 1 (Resistor)R level 1 (Resistor)R level 1 (Resistor)
[...]
              0              0              0              0              0              0              0              0
              0              0              0              0              0              0              0              0
              0              0              0              0              0              0              0              0
              0              0              0              0              0              0              0              0
              0              0              0              0              0              0              0              0
              0              0              0              0              0              0              0              0
              0              0              0              0              0              0              0              0
              0              0              0              0              0              0              0              0
              0              0              0              0              0              0              0              0
              0              0              0              0              0              0              0              0
              0              0              0              0              0              0              0              0
              0              0              0              0              0              0              0              0
              0              0              0              0              0              0              0              0
              0              0              0              0              0              0              0              0
              0              0              0              0              0              0              0              0
              0              0              0              0              0              0              0              0
              0              0              0              0              0              0              0              0
              0              0              0              0              0              0              0              0
              0              0              0              0              0              0              0              0
              0              0              0              0              0              0              0              0
              0              0              0              0              0              0              0              0
              0              0              0              0              0              0              0              0
              0              0              0              0              0              0              0              0
              0              0              0              0              0              0              0              0
              0              0              0              0              0              0              0              0
              0              0              0              0              0              0              0              0
              0              0              0              0              0              0              0              0
              0              0              0              0              0              0              0              0
              0              0              0              0              0              0              0              0
              0              0              0              0              0              0              0              0
              0              0              0              0              0              0              0              0
              0              0              0              0              0              0              0              0
              0              0              0              0              0              0              0              0
              0              0              0              0              0              0              0              0
              0              0              0              0              0              0              0              0
              0              0              0              0              0              0              0              0
              0              0              0              0              0              0              0              0
              0              0              0              0              0              0              0              0
              0              0              0              0              0              0              0              0
              0              0              0              0              0              0              0              0
              0              0              0              0              0              0              0              0
              0              0              0              0              0              0              0              0
              0              0              0              0              0              0              0              0
              0              0              0              0              0              0              0              0
              0              0              0              0              0              0              0              0
              0              0              0              0              0              0              0              0
              0              0              0              0              0              0              0              0
              0              0              0              0              0              0              0              0
              0              0              0              0              0              0              0              0
              0              0              0              0              0              0              0              0
              0              0              0              0              0              0              0              0
              0              0              0              0              0              0              0              0
              0              0              0              0              0              0              0              0
              0              0              0              0              0              0              0              0
              0              0              0              0              0              0              0              0
              0              0              0              0              0              0              0              0
              0              0              0              0              0              0              0              0
              0              0              0              0              0              0              0              0
              0              0              0              0              0              0              0              0
              0              0              0              0              0              0              0              0
              0              0              0              0              0              0              0              0
              0              0              0              0              0              0              0              0
              0              0              0              0              0              0              0              0
              0              0              0              0              0              0              0              0
              0              0              0              0              0              0              0              0
              0              0              0              0              0              0              0              0
              0              0              0              0              0              0              0              0
              0              0              0              0              0              0              0              0
              0              0              0              0              0              0              0              0
              0              0              0              0              0              0              0              0
              0              0              0              0              0              0              0              0
              0              0              0              0              0              0              0              0
              0              0              0              0              0              0              0              0
              0              0              0              0              0              0              0              0
              0              0              0              0              0              0              0              0
              0              0              0              0              0              0              0              0
              0              0              0              0              0              0              0              0
              0              0              0              0              0              0              0              0
              0              0              0              0              0              0              0              0
              0              0              0              0              0              0              0              0
              0              0              0              0              0              0              0              0
              0              0              0              0              0              0              0              0
              0              0              0              0              0              0              0              0
              0              0              0              0              0              0              0              0
              0              0              0              0              0              0              0              0
              0              0              0              0              0              0              0              0
              0              0              0              0              0              0              0              0
              0              0              0              0              0              0              0              0
              0              0              0              0              0              0              0              0
              0              0              0              0              0              0              0              0
              0              0              0              0              0              0              0              0
              0              0              0              0              0              0              0              0
              0              0              0              0              0              0              0              0
              0              0              0              0              0              0              0              0
              0              0              0              0              0              0              0              0
              0              0              0              0              0              0              0              0
              0              0              0              0              0              0              0              0
              0              0              0              0              0              0              0              0
              0              0              0              0              0              0              0              0
              0              0              0              0              0              0              0              0
              0              0              0              0              0              0              0              0
              0              0              0              0              0              0              0              0
              0              0              0              0              0              0              0              0
              0              0              0              0              0              0              0              0
              0              0              0              0              0              0              0              0
              0              0              0              0              0              0              0              0
              0              0              0              0              0              0              0              0
              0              0              0              0              0              0              0              0
              0              0              0              0              0              0              0              0
              0              0              0              0              0              0              0              0
              0              0              0              0              0              0              0              0
              0              0              0              0              0              0              0              0
              0              0              0              0              0              0              0              0
              0              0              0              0              0              0              0              0
              0              0              0              0              0              0              0              0
              0              0              0              0              0              0              0              0
              0              0              0              0              0              0              0              0
              0              0

------------------------------------------------------------

***** Solution Summary *****
	Number Successful Steps Taken:		1
	Number Failed Steps Attempted:		0
	Number Jacobians Evaluated:		3
	Number Iteration Matrix Factorizations:	0
	Number Linear Solves:			3
	Number Failed Linear Solves:		0
	Number Residual Evaluations:		4
	Number Nonlinear Convergence Failures:	0
	Total Residual Load Time:		0.00211382 seconds
	Total Jacobian Load Time:		0.00285792 seconds
	Total Linear Solution Time:		0.102436 seconds


***** Total Simulation Solvers Run Time: 0.202202 seconds
***** Total Elapsed Run Time:            0.49865 seconds
*****
***** End of Xyce(TM) Simulation
*****

Timing summary of processor 0
                 Stats                   Count       CPU Time              Wall Time
---------------------------------------- ----- --------------------- ---------------------
Xyce                                         1        0.494 (100.0%)        0.659 (100.0%)
  Analysis                                   1        0.176 (35.62%)        0.202 (30.66%)
    DC Sweep                                 1        0.138 (27.93%)        0.163 (24.77%)
      Solve                                  1        0.105 (21.26%)        0.118 (17.92%)
        Residual                             4        0.002 ( 0.40%)        0.002 ( 0.32%)
        Jacobian                             3        0.003 ( 0.58%)        0.003 ( 0.43%)
        Linear Solve                         3        0.090 (18.32%)        0.102 (15.53%)
      Successful Step                        1        0.033 ( 6.66%)        0.044 ( 6.65%)
  Netlist Import                             1        0.165 (33.52%)        0.173 (26.17%)
    Parse Context                            1        0.029 ( 5.86%)        0.031 ( 4.64%)
    Distribute Devices                       1        0.096 (19.51%)        0.098 (14.82%)
    Verify Devices                           1        0.000 (<0.01%)        0.000 (<0.01%)
    Instantiate                              1        0.017 ( 3.39%)        0.018 ( 2.68%)
  Late Initialization                        1        0.121 (24.57%)        0.122 (18.51%)
    Global Indices                           1        0.039 ( 7.95%)        0.039 ( 5.95%)
  Setup Matrix Structure                     1        0.016 ( 3.14%)        0.016 ( 2.47%)


Timing summary of 4 processors
                                                     CPU Time              CPU Time              CPU Time              Wall Time             Wall Time             Wall Time
                 Stats                   Count   Sum (% of System)     Min (% of System)     Max (% of System)     Sum (% of System)     Min (% of System)     Max (% of System)
---------------------------------------- ----- --------------------- --------------------- --------------------- --------------------- --------------------- ---------------------
Xyce                                         4        2.039 (100.0%)        0.494 (24.22%)        0.524 (25.71%)        2.633 (100.0%)        0.658 (24.98%)        0.660 (25.05%)
  Analysis                                   4        0.773 (37.90%)        0.176 ( 8.62%)        0.199 ( 9.78%)        0.804 (30.52%)        0.200 ( 7.61%)        0.202 ( 7.68%)
    DC Sweep                                 4        0.620 (30.41%)        0.138 ( 6.76%)        0.162 ( 7.93%)        0.649 (24.63%)        0.162 ( 6.14%)        0.163 ( 6.20%)
      Solve                                  4        0.457 (22.43%)        0.105 ( 5.15%)        0.118 ( 5.80%)        0.473 (17.95%)        0.118 ( 4.48%)        0.118 ( 4.49%)
        Residual                            16        0.008 ( 0.40%)        0.002 ( 0.10%)        0.002 ( 0.10%)        0.009 ( 0.32%)        0.002 ( 0.08%)        0.002 ( 0.08%)
        Jacobian                            12        0.012 ( 0.57%)        0.003 ( 0.14%)        0.003 ( 0.15%)        0.012 ( 0.44%)        0.003 ( 0.11%)        0.003 ( 0.11%)
        Linear Solve                        12        0.397 (19.49%)        0.090 ( 4.44%)        0.102 ( 5.02%)        0.409 (15.55%)        0.102 ( 3.89%)        0.102 ( 3.89%)
      Successful Step                        4        0.160 ( 7.85%)        0.033 ( 1.61%)        0.043 ( 2.10%)        0.172 ( 6.53%)        0.043 ( 1.62%)        0.044 ( 1.67%)
  Netlist Import                             4        0.657 (32.24%)        0.160 ( 7.85%)        0.168 ( 8.25%)        0.690 (26.21%)        0.173 ( 6.55%)        0.173 ( 6.55%)
    Parse Context                            4        0.120 ( 5.91%)        0.029 ( 1.42%)        0.031 ( 1.50%)        0.122 ( 4.64%)        0.031 ( 1.16%)        0.031 ( 1.16%)
    Distribute Devices                       4        0.376 (18.44%)        0.091 ( 4.44%)        0.096 ( 4.72%)        0.392 (14.87%)        0.098 ( 3.71%)        0.098 ( 3.72%)
    Verify Devices                           4        0.000 (<0.01%)        0.000 (<0.01%)        0.000 (<0.01%)        0.000 (<0.01%)        0.000 (<0.01%)        0.000 (<0.01%)
    Instantiate                              4        0.071 ( 3.47%)        0.016 ( 0.81%)        0.019 ( 0.94%)        0.075 ( 2.83%)        0.017 ( 0.66%)        0.020 ( 0.77%)
  Late Initialization                        4        0.486 (23.84%)        0.120 ( 5.91%)        0.122 ( 6.00%)        0.489 (18.57%)        0.122 ( 4.63%)        0.122 ( 4.65%)
    Global Indices                           4        0.157 ( 7.72%)        0.039 ( 1.92%)        0.040 ( 1.96%)        0.158 ( 5.99%)        0.039 ( 1.49%)        0.040 ( 1.52%)
  Setup Matrix Structure                     4        0.062 ( 3.07%)        0.014 ( 0.71%)        0.016 ( 0.80%)        0.065 ( 2.48%)        0.016 ( 0.62%)        0.016 ( 0.62%)

