
*****
***** Welcome to the Xyce(TM) Parallel Electronic Simulator
*****
***** This is version Xyce Release 6.12-opensource
***** Date: Thu Jul 16 03:55:56 EDT 2020


***** Executing netlist RC_steady.cir

***** Reading and parsing netlist...
***** Setting up topology...

***** Device Count Summary ...
       I level 1 (Independent Current Source)  1600
       R level 1 (Resistor)                    9440
       V level 1 (Independent Voltage Source)     1
       --------------------------------------------
       Total Devices                          11041
***** Setting up matrix structure...
***** Number of Unknowns = 3202
***** Initializing...

------------------------------------------------------------
Operating point information:
Number of Resistor models: 1
          name R level 1 (Resistor)
          type                
         level               1
           TNOM             27
           DEFW          1e-05
         NARROW              0
              R              1
            TC1              0
            TCE              0
            TC2              0

            RSH              0

Number of Resistor instances: 2761
          name     R_1_16_18_2    R_1_16_18_3    R_1_16_19_1    R_1_16_19_2    R_1_16_19_3    R_1_16_20_1    R_1_16_20_2
    R_1_16_20_3    R_1_16_21_1    R_1_16_21_2    R_1_16_21_3    R_1_16_22_1    R_1_16_22_2    R_1_16_22_3    R_1_16_23_1
    R_1_16_23_2    R_1_16_23_3    R_1_16_24_1    R_1_16_24_2    R_1_16_24_3    R_1_16_25_1    R_1_16_25_2    R_1_16_25_3
    R_1_16_26_1    R_1_16_26_2    R_1_16_26_3    R_1_16_27_1    R_1_16_27_2    R_1_16_27_3    R_1_16_28_1    R_1_16_28_2
    R_1_16_28_3    R_1_16_29_1    R_1_16_29_2    R_1_16_29_3    R_1_16_30_1    R_1_16_30_2    R_1_16_30_3    R_1_16_31_1
    R_1_16_31_2    R_1_16_31_3    R_1_16_32_1    R_1_16_32_2    R_1_16_32_3    R_1_16_33_1    R_1_16_33_2    R_1_16_33_3
    R_1_16_34_1    R_1_16_34_2    R_1_16_34_3    R_1_16_35_1    R_1_16_35_2    R_1_16_35_3    R_1_16_36_1    R_1_16_36_2
    R_1_16_36_3    R_1_16_37_1    R_1_16_37_2    R_1_16_37_3    R_1_16_38_1    R_1_16_38_2    R_1_16_38_3    R_1_16_39_2
    R_1_16_39_3     R_1_17_0_1     R_1_17_0_2     R_1_17_0_3    R_1_17_10_1    R_1_17_10_2    R_1_17_10_3    R_1_17_11_1
    R_1_17_11_2    R_1_17_11_3    R_1_17_12_1    R_1_17_12_2    R_1_17_12_3    R_1_17_13_1    R_1_17_13_2    R_1_17_13_3
    R_1_17_14_1    R_1_17_14_2    R_1_17_14_3    R_1_17_15_1    R_1_17_15_2    R_1_17_15_3    R_1_17_16_1    R_1_17_16_2
    R_1_17_16_3    R_1_17_17_1    R_1_17_17_2    R_1_17_17_3    R_1_17_18_1    R_1_17_18_2    R_1_17_18_3    R_1_17_19_1
    R_1_17_19_2    R_1_17_19_3     R_1_17_1_1     R_1_17_1_2     R_1_17_1_3    R_1_17_20_1    R_1_17_20_2    R_1_17_20_3
    R_1_17_21_1    R_1_17_21_2    R_1_17_21_3    R_1_17_22_1    R_1_17_22_2    R_1_17_22_3    R_1_17_23_1    R_1_17_23_2
    R_1_17_23_3    R_1_17_24_1    R_1_17_24_2    R_1_17_24_3    R_1_17_25_1    R_1_17_25_2    R_1_17_25_3    R_1_17_26_1
    R_1_17_26_2    R_1_17_26_3    R_1_17_27_1    R_1_17_27_2    R_1_17_27_3    R_1_17_28_1    R_1_17_28_2    R_1_17_28_3
    R_1_17_29_1    R_1_17_29_2    R_1_17_29_3     R_1_17_2_1     R_1_17_2_2     R_1_17_2_3    R_1_17_30_1    R_1_17_30_2
    R_1_17_30_3    R_1_17_31_1    R_1_17_31_2    R_1_17_31_3    R_1_17_32_1    R_1_17_32_2    R_1_17_32_3    R_1_17_33_1
    R_1_17_33_2    R_1_17_33_3    R_1_17_34_1    R_1_17_34_2    R_1_17_34_3    R_1_17_35_1    R_1_17_35_2    R_1_17_35_3
    R_1_17_36_1    R_1_17_36_2    R_1_17_36_3    R_1_17_37_1    R_1_17_37_2    R_1_17_37_3    R_1_17_38_1    R_1_17_38_2
    R_1_17_38_3    R_1_17_39_2    R_1_17_39_3     R_1_17_3_1     R_1_17_3_2     R_1_17_3_3     R_1_17_4_1     R_1_17_4_2
     R_1_17_4_3     R_1_17_5_1     R_1_17_5_2     R_1_17_5_3     R_1_17_6_1     R_1_17_6_2     R_1_17_6_3     R_1_17_7_1
     R_1_17_7_2     R_1_17_7_3     R_1_17_8_1     R_1_17_8_2     R_1_17_8_3     R_1_17_9_1     R_1_17_9_2     R_1_17_9_3
     R_1_18_0_1     R_1_18_0_2     R_1_18_0_3    R_1_18_10_1    R_1_18_10_2    R_1_18_10_3    R_1_18_11_1    R_1_18_11_2
    R_1_18_11_3    R_1_18_12_1    R_1_18_12_2    R_1_18_12_3    R_1_18_13_1    R_1_18_13_2    R_1_18_13_3    R_1_18_14_1
    R_1_18_14_2    R_1_18_14_3    R_1_18_15_1    R_1_18_15_2    R_1_18_15_3    R_1_18_16_1    R_1_18_16_2    R_1_18_16_3
    R_1_18_17_1    R_1_18_17_2    R_1_18_17_3    R_1_18_18_1    R_1_18_18_2    R_1_18_18_3    R_1_18_19_1    R_1_18_19_2
    R_1_18_19_3     R_1_18_1_1     R_1_18_1_2     R_1_18_1_3    R_1_18_20_1    R_1_18_20_2    R_1_18_20_3    R_1_18_21_1
    R_1_18_21_2    R_1_18_21_3    R_1_18_22_1    R_1_18_22_2    R_1_18_22_3    R_1_18_23_1    R_1_18_23_2    R_1_18_23_3
    R_1_18_24_1    R_1_18_24_2    R_1_18_24_3    R_1_18_25_1    R_1_18_25_2    R_1_18_25_3    R_1_18_26_1    R_1_18_26_2
    R_1_18_26_3    R_1_18_27_1    R_1_18_27_2    R_1_18_27_3    R_1_18_28_1    R_1_18_28_2    R_1_18_28_3    R_1_18_29_1
    R_1_18_29_2    R_1_18_29_3     R_1_18_2_1     R_1_18_2_2     R_1_18_2_3    R_1_18_30_1    R_1_18_30_2    R_1_18_30_3
    R_1_18_31_1    R_1_18_31_2    R_1_18_31_3    R_1_18_32_1    R_1_18_32_2    R_1_18_32_3    R_1_18_33_1    R_1_18_33_2
    R_1_18_33_3    R_1_18_34_1    R_1_18_34_2    R_1_18_34_3    R_1_18_35_1    R_1_18_35_2    R_1_18_35_3    R_1_18_36_1
    R_1_18_36_2    R_1_18_36_3    R_1_18_37_1    R_1_18_37_2    R_1_18_37_3    R_1_18_38_1    R_1_18_38_2    R_1_18_38_3
    R_1_18_39_2    R_1_18_39_3     R_1_18_3_1     R_1_18_3_2     R_1_18_3_3     R_1_18_4_1     R_1_18_4_2     R_1_18_4_3
     R_1_18_5_1     R_1_18_5_2     R_1_18_5_3     R_1_18_6_1     R_1_18_6_2     R_1_18_6_3     R_1_18_7_1     R_1_18_7_2
     R_1_18_7_3     R_1_18_8_1     R_1_18_8_2     R_1_18_8_3     R_1_18_9_1     R_1_18_9_2     R_1_18_9_3     R_1_19_0_1
     R_1_19_0_2     R_1_19_0_3    R_1_19_10_1    R_1_19_10_2    R_1_19_10_3    R_1_19_11_1    R_1_19_11_2    R_1_19_11_3
    R_1_19_12_1    R_1_19_12_2    R_1_19_12_3    R_1_19_13_1    R_1_19_13_2    R_1_19_13_3    R_1_19_14_1    R_1_19_14_2
    R_1_19_14_3    R_1_19_15_1    R_1_19_15_2    R_1_19_15_3    R_1_19_16_1    R_1_19_16_2    R_1_19_16_3    R_1_19_17_1
    R_1_19_17_2    R_1_19_17_3    R_1_19_18_1    R_1_19_18_2    R_1_19_18_3    R_1_19_19_1    R_1_19_19_2    R_1_19_19_3
     R_1_19_1_1     R_1_19_1_2     R_1_19_1_3    R_1_19_20_1    R_1_19_20_2    R_1_19_20_3    R_1_19_21_1    R_1_19_21_2
    R_1_19_21_3    R_1_19_22_1    R_1_19_22_2    R_1_19_22_3    R_1_19_23_1    R_1_19_23_2    R_1_19_23_3    R_1_19_24_1
    R_1_19_24_2    R_1_19_24_3    R_1_19_25_1    R_1_19_25_2    R_1_19_25_3    R_1_19_26_1    R_1_19_26_2    R_1_19_26_3
    R_1_19_27_1    R_1_19_27_2    R_1_19_27_3    R_1_19_28_1    R_1_19_28_2    R_1_19_28_3    R_1_19_29_1    R_1_19_29_2
    R_1_19_29_3     R_1_19_2_1     R_1_19_2_2     R_1_19_2_3    R_1_19_30_1    R_1_19_30_2    R_1_19_30_3    R_1_19_31_1
    R_1_19_31_2    R_1_19_31_3    R_1_19_32_1    R_1_19_32_2    R_1_19_32_3    R_1_19_33_1    R_1_19_33_2    R_1_19_33_3
    R_1_19_34_1    R_1_19_34_2    R_1_19_34_3    R_1_19_35_1    R_1_19_35_2    R_1_19_35_3    R_1_19_36_1    R_1_19_36_2
    R_1_19_36_3    R_1_19_37_1    R_1_19_37_2    R_1_19_37_3    R_1_19_38_1    R_1_19_38_2    R_1_19_38_3    R_1_19_39_2
    R_1_19_39_3     R_1_19_3_1     R_1_19_3_2     R_1_19_3_3     R_1_19_4_1     R_1_19_4_2     R_1_19_4_3     R_1_19_5_1
     R_1_19_5_2     R_1_19_5_3     R_1_19_6_1     R_1_19_6_2     R_1_19_6_3     R_1_19_7_1     R_1_19_7_2     R_1_19_7_3
     R_1_19_8_1     R_1_19_8_2     R_1_19_8_3     R_1_19_9_1     R_1_19_9_2     R_1_19_9_3     R_1_20_0_1     R_1_20_0_2
     R_1_20_0_3    R_1_20_10_1    R_1_20_10_2    R_1_20_10_3    R_1_20_11_1    R_1_20_11_2    R_1_20_11_3    R_1_20_12_1
    R_1_20_12_2    R_1_20_12_3    R_1_20_13_1    R_1_20_13_2    R_1_20_13_3    R_1_20_14_1    R_1_20_14_2    R_1_20_14_3
    R_1_20_15_1    R_1_20_15_2    R_1_20_15_3    R_1_20_16_1    R_1_20_16_2    R_1_20_16_3    R_1_20_17_1    R_1_20_17_2
    R_1_20_17_3    R_1_20_18_1    R_1_20_18_2    R_1_20_18_3    R_1_20_19_1    R_1_20_19_2    R_1_20_19_3     R_1_20_1_1
     R_1_20_1_2     R_1_20_1_3    R_1_20_20_1    R_1_20_20_2    R_1_20_20_3    R_1_20_21_1    R_1_20_21_2    R_1_20_21_3
    R_1_20_22_1    R_1_20_22_2    R_1_20_22_3    R_1_20_23_1    R_1_20_23_2    R_1_20_23_3    R_1_20_24_1    R_1_20_24_2
    R_1_20_24_3    R_1_20_25_1    R_1_20_25_2    R_1_20_25_3    R_1_20_26_1    R_1_20_26_2    R_1_20_26_3    R_1_20_27_1
    R_1_20_27_2    R_1_20_27_3    R_1_20_28_1    R_1_20_28_2    R_1_20_28_3    R_1_20_29_1    R_1_20_29_2    R_1_20_29_3
     R_1_20_2_1     R_1_20_2_2     R_1_20_2_3    R_1_20_30_1    R_1_20_30_2    R_1_20_30_3    R_1_20_31_1    R_1_20_31_2
    R_1_20_31_3    R_1_20_32_1    R_1_20_32_2    R_1_20_32_3    R_1_20_33_1    R_1_20_33_2    R_1_20_33_3    R_1_20_34_1
    R_1_20_34_2    R_1_20_34_3    R_1_20_35_1    R_1_20_35_2    R_1_20_35_3    R_1_20_36_1    R_1_20_36_2    R_1_20_36_3
    R_1_20_37_1    R_1_20_37_2    R_1_20_37_3    R_1_20_38_1    R_1_20_38_2    R_1_20_38_3    R_1_20_39_2    R_1_20_39_3
     R_1_20_3_1     R_1_20_3_2     R_1_20_3_3     R_1_20_4_1     R_1_20_4_2     R_1_20_4_3     R_1_20_5_1     R_1_20_5_2
     R_1_20_5_3     R_1_20_6_1     R_1_20_6_2     R_1_20_6_3     R_1_20_7_1     R_1_20_7_2     R_1_20_7_3     R_1_20_8_1
     R_1_20_8_2     R_1_20_8_3     R_1_20_9_1     R_1_20_9_2     R_1_20_9_3     R_1_21_0_1     R_1_21_0_2     R_1_21_0_3
    R_1_21_10_1    R_1_21_10_2    R_1_21_10_3    R_1_21_11_1    R_1_21_11_2    R_1_21_11_3    R_1_21_12_1    R_1_21_12_2
    R_1_21_12_3    R_1_21_13_1    R_1_21_13_2    R_1_21_13_3    R_1_21_14_1    R_1_21_14_2    R_1_21_14_3    R_1_21_15_1
    R_1_21_15_2    R_1_21_15_3    R_1_21_16_1    R_1_21_16_2    R_1_21_16_3    R_1_21_17_1    R_1_21_17_2    R_1_21_17_3
    R_1_21_18_1    R_1_21_18_2    R_1_21_18_3    R_1_21_19_1    R_1_21_19_2    R_1_21_19_3     R_1_21_1_1     R_1_21_1_2
     R_1_21_1_3    R_1_21_20_1    R_1_21_20_2    R_1_21_20_3    R_1_21_21_1    R_1_21_21_2    R_1_21_21_3    R_1_21_22_1
    R_1_21_22_2    R_1_21_22_3    R_1_21_23_1    R_1_21_23_2    R_1_21_23_3    R_1_21_24_1    R_1_21_24_2    R_1_21_24_3
    R_1_21_25_1    R_1_21_25_2    R_1_21_25_3    R_1_21_26_1    R_1_21_26_2    R_1_21_26_3    R_1_21_27_1    R_1_21_27_2
    R_1_21_27_3    R_1_21_28_1    R_1_21_28_2    R_1_21_28_3    R_1_21_29_1    R_1_21_29_2    R_1_21_29_3     R_1_21_2_1
     R_1_21_2_2     R_1_21_2_3    R_1_21_30_1    R_1_21_30_2    R_1_21_30_3    R_1_21_31_1    R_1_21_31_2    R_1_21_31_3
    R_1_21_32_1    R_1_21_32_2    R_1_21_32_3    R_1_21_33_1    R_1_21_33_2    R_1_21_33_3    R_1_21_34_1    R_1_21_34_2
    R_1_21_34_3    R_1_21_35_1    R_1_21_35_2    R_1_21_35_3    R_1_21_36_1    R_1_21_36_2    R_1_21_36_3    R_1_21_37_1
    R_1_21_37_2    R_1_21_37_3    R_1_21_38_1    R_1_21_38_2    R_1_21_38_3    R_1_21_39_2    R_1_21_39_3     R_1_21_3_1
     R_1_21_3_2     R_1_21_3_3     R_1_21_4_1     R_1_21_4_2     R_1_21_4_3     R_1_21_5_1     R_1_21_5_2     R_1_21_5_3
     R_1_21_6_1     R_1_21_6_2     R_1_21_6_3     R_1_21_7_1     R_1_21_7_2     R_1_21_7_3     R_1_21_8_1     R_1_21_8_2
     R_1_21_8_3     R_1_21_9_1     R_1_21_9_2     R_1_21_9_3     R_1_22_0_1     R_1_22_0_2     R_1_22_0_3    R_1_22_10_1
    R_1_22_10_2    R_1_22_10_3    R_1_22_11_1    R_1_22_11_2    R_1_22_11_3    R_1_22_12_1    R_1_22_12_2    R_1_22_12_3
    R_1_22_13_1    R_1_22_13_2    R_1_22_13_3    R_1_22_14_1    R_1_22_14_2    R_1_22_14_3    R_1_22_15_1    R_1_22_15_2
    R_1_22_15_3    R_1_22_16_1    R_1_22_16_2    R_1_22_16_3    R_1_22_17_1    R_1_22_17_2    R_1_22_17_3    R_1_22_18_1
    R_1_22_18_2    R_1_22_18_3    R_1_22_19_1    R_1_22_19_2    R_1_22_19_3     R_1_22_1_1     R_1_22_1_2     R_1_22_1_3
    R_1_22_20_1    R_1_22_20_2    R_1_22_20_3    R_1_22_21_1    R_1_22_21_2    R_1_22_21_3    R_1_22_22_1    R_1_22_22_2
    R_1_22_22_3    R_1_22_23_1    R_1_22_23_2    R_1_22_23_3    R_1_22_24_1    R_1_22_24_2    R_1_22_24_3    R_1_22_25_1
    R_1_22_25_2    R_1_22_25_3    R_1_22_26_1    R_1_22_26_2    R_1_22_26_3    R_1_22_27_1    R_1_22_27_2    R_1_22_27_3
    R_1_22_28_1    R_1_22_28_2    R_1_22_28_3    R_1_22_29_1    R_1_22_29_2    R_1_22_29_3     R_1_22_2_1     R_1_22_2_2
     R_1_22_2_3    R_1_22_30_1    R_1_22_30_2    R_1_22_30_3    R_1_22_31_1    R_1_22_31_2    R_1_22_31_3    R_1_22_32_1
    R_1_22_32_2    R_1_22_32_3    R_1_22_33_1    R_1_22_33_2    R_1_22_33_3    R_1_22_34_1    R_1_22_34_2    R_1_22_34_3
    R_1_22_35_1    R_1_22_35_2    R_1_22_35_3    R_1_22_36_1    R_1_22_36_2    R_1_22_36_3    R_1_22_37_1    R_1_22_37_2
    R_1_22_37_3    R_1_22_38_1    R_1_22_38_2    R_1_22_38_3    R_1_22_39_2    R_1_22_39_3     R_1_22_3_1     R_1_22_3_2
     R_1_22_3_3     R_1_22_4_1     R_1_22_4_2     R_1_22_4_3     R_1_22_5_1     R_1_22_5_2     R_1_22_5_3     R_1_22_6_1
     R_1_22_6_2     R_1_22_6_3     R_1_22_7_1     R_1_22_7_2     R_1_22_7_3     R_1_22_8_1     R_1_22_8_2     R_1_22_8_3
     R_1_22_9_1     R_1_22_9_2     R_1_22_9_3     R_1_23_0_1     R_1_23_0_2     R_1_23_0_3    R_1_23_10_1    R_1_23_10_2
    R_1_23_10_3    R_1_23_11_1    R_1_23_11_2    R_1_23_11_3    R_1_23_12_1    R_1_23_12_2    R_1_23_12_3    R_1_23_13_1
    R_1_23_13_2    R_1_23_13_3    R_1_23_14_1    R_1_23_14_2    R_1_23_14_3    R_1_23_15_1    R_1_23_15_2    R_1_23_15_3
    R_1_23_16_1    R_1_23_16_2    R_1_23_16_3    R_1_23_17_1    R_1_23_17_2    R_1_23_17_3    R_1_23_18_1    R_1_23_18_2
    R_1_23_18_3    R_1_23_19_1    R_1_23_19_2    R_1_23_19_3     R_1_23_1_1     R_1_23_1_2     R_1_23_1_3    R_1_23_20_1
    R_1_23_20_2    R_1_23_20_3    R_1_23_21_1    R_1_23_21_2    R_1_23_21_3    R_1_23_22_1    R_1_23_22_2    R_1_23_22_3
    R_1_23_23_1    R_1_23_23_2    R_1_23_23_3    R_1_23_24_1    R_1_23_24_2    R_1_23_24_3    R_1_23_25_1    R_1_23_25_2
    R_1_23_25_3    R_1_23_26_1    R_1_23_26_2    R_1_23_26_3    R_1_23_27_1    R_1_23_27_2    R_1_23_27_3    R_1_23_28_1
    R_1_23_28_2    R_1_23_28_3    R_1_23_29_1    R_1_23_29_2    R_1_23_29_3     R_1_23_2_1     R_1_23_2_2     R_1_23_2_3
    R_1_23_30_1    R_1_23_30_2    R_1_23_30_3    R_1_23_31_1    R_1_23_31_2    R_1_23_31_3    R_1_23_32_1    R_1_23_32_2
    R_1_23_32_3    R_1_23_33_1    R_1_23_33_2    R_1_23_33_3    R_1_23_34_1    R_1_23_34_2    R_1_23_34_3    R_1_23_35_1
    R_1_23_35_2    R_1_23_35_3    R_1_23_36_1    R_1_23_36_2    R_1_23_36_3    R_1_23_37_1    R_1_23_37_2    R_1_23_37_3
    R_1_23_38_1    R_1_23_38_2    R_1_23_38_3    R_1_23_39_2    R_1_23_39_3     R_1_23_3_1     R_1_23_3_2     R_1_23_3_3
     R_1_23_4_1     R_1_23_4_2     R_1_23_4_3     R_1_23_5_1     R_1_23_5_2     R_1_23_5_3     R_1_23_6_1     R_1_23_6_2
     R_1_23_6_3     R_1_23_7_1     R_1_23_7_2     R_1_23_7_3     R_1_23_8_1     R_1_23_8_2     R_1_23_8_3     R_1_23_9_1
     R_1_23_9_2     R_1_23_9_3     R_1_24_0_1     R_1_24_0_2     R_1_24_0_3    R_1_24_10_1    R_1_24_10_2    R_1_24_10_3
    R_1_24_11_1    R_1_24_11_2    R_1_24_11_3    R_1_24_12_1    R_1_24_12_2    R_1_24_12_3    R_1_24_13_1    R_1_24_13_2
    R_1_24_13_3    R_1_24_14_1    R_1_24_14_2    R_1_24_14_3    R_1_24_15_1    R_1_24_15_2    R_1_24_15_3    R_1_24_16_1
    R_1_24_16_2    R_1_24_16_3    R_1_24_17_1    R_1_24_17_2    R_1_24_17_3    R_1_24_18_1    R_1_24_18_2    R_1_24_18_3
    R_1_24_19_1    R_1_24_19_2    R_1_24_19_3     R_1_24_1_1     R_1_24_1_2     R_1_24_1_3    R_1_24_20_1    R_1_24_20_2
    R_1_24_20_3    R_1_24_21_1    R_1_24_21_2    R_1_24_21_3    R_1_24_22_1    R_1_24_22_2    R_1_24_22_3    R_1_24_23_1
    R_1_24_23_2    R_1_24_23_3    R_1_24_24_1    R_1_24_24_2    R_1_24_24_3    R_1_24_25_1    R_1_24_25_2    R_1_24_25_3
    R_1_24_26_1    R_1_24_26_2    R_1_24_26_3    R_1_24_27_1    R_1_24_27_2    R_1_24_27_3    R_1_24_28_1    R_1_24_28_2
    R_1_24_28_3    R_1_24_29_1    R_1_24_29_2    R_1_24_29_3     R_1_24_2_1     R_1_24_2_2     R_1_24_2_3    R_1_24_30_1
    R_1_24_30_2    R_1_24_30_3    R_1_24_31_1    R_1_24_31_2    R_1_24_31_3    R_1_24_32_1    R_1_24_32_2    R_1_24_32_3
    R_1_24_33_1    R_1_24_33_2    R_1_24_33_3    R_1_24_34_1    R_1_24_34_2    R_1_24_34_3    R_1_24_35_1    R_1_24_35_2
    R_1_24_35_3    R_1_24_36_1    R_1_24_36_2    R_1_24_36_3    R_1_24_37_1    R_1_24_37_2    R_1_24_37_3    R_1_24_38_1
    R_1_24_38_2    R_1_24_38_3    R_1_24_39_2    R_1_24_39_3     R_1_24_3_1     R_1_24_3_2     R_1_24_3_3     R_1_24_4_1
     R_1_24_4_2     R_1_24_4_3     R_1_24_5_1     R_1_24_5_2     R_1_24_5_3     R_1_24_6_1     R_1_24_6_2     R_1_24_6_3
     R_1_24_7_1     R_1_24_7_2     R_1_24_7_3     R_1_24_8_1     R_1_24_8_2     R_1_24_8_3     R_1_24_9_1     R_1_24_9_2
     R_1_24_9_3     R_1_25_0_1     R_1_25_0_2     R_1_25_0_3    R_1_25_10_1    R_1_25_10_2    R_1_25_10_3    R_1_25_11_1
    R_1_25_11_2    R_1_25_11_3    R_1_25_12_1    R_1_25_12_2    R_1_25_12_3    R_1_25_13_1    R_1_25_13_2    R_1_25_13_3
    R_1_25_14_1    R_1_25_14_2    R_1_25_14_3    R_1_25_15_1    R_1_25_15_2    R_1_25_15_3    R_1_25_16_1    R_1_25_16_2
    R_1_25_16_3    R_1_25_17_1    R_1_25_17_2    R_1_25_17_3    R_1_25_18_1    R_1_25_18_2    R_1_25_18_3    R_1_25_19_1
    R_1_25_19_2    R_1_25_19_3     R_1_25_1_1     R_1_25_1_2     R_1_25_1_3    R_1_25_20_1    R_1_25_20_2    R_1_25_20_3
    R_1_25_21_1    R_1_25_21_2    R_1_25_21_3    R_1_25_22_1    R_1_25_22_2    R_1_25_22_3    R_1_25_23_1    R_1_25_23_2
    R_1_25_23_3    R_1_25_24_1    R_1_25_24_2    R_1_25_24_3    R_1_25_25_1    R_1_25_25_2    R_1_25_25_3    R_1_25_26_1
    R_1_25_26_2    R_1_25_26_3    R_1_25_27_1    R_1_25_27_2    R_1_25_27_3    R_1_25_28_1    R_1_25_28_2    R_1_25_28_3
    R_1_25_29_1    R_1_25_29_2    R_1_25_29_3     R_1_25_2_1     R_1_25_2_2     R_1_25_2_3    R_1_25_30_1    R_1_25_30_2
    R_1_25_30_3    R_1_25_31_1    R_1_25_31_2    R_1_25_31_3    R_1_25_32_1    R_1_25_32_2    R_1_25_32_3    R_1_25_33_1
    R_1_25_33_2    R_1_25_33_3    R_1_25_34_1    R_1_25_34_2    R_1_25_34_3    R_1_25_35_1    R_1_25_35_2    R_1_25_35_3
    R_1_25_36_1    R_1_25_36_2    R_1_25_36_3    R_1_25_37_1    R_1_25_37_2    R_1_25_37_3    R_1_25_38_1    R_1_25_38_2
    R_1_25_38_3    R_1_25_39_2    R_1_25_39_3     R_1_25_3_1     R_1_25_3_2     R_1_25_3_3     R_1_25_4_1     R_1_25_4_2
     R_1_25_4_3     R_1_25_5_1     R_1_25_5_2     R_1_25_5_3     R_1_25_6_1     R_1_25_6_2     R_1_25_6_3     R_1_25_7_1
     R_1_25_7_2     R_1_25_7_3     R_1_25_8_1     R_1_25_8_2     R_1_25_8_3     R_1_25_9_1     R_1_25_9_2     R_1_25_9_3
     R_1_26_0_1     R_1_26_0_2     R_1_26_0_3    R_1_26_10_1    R_1_26_10_2    R_1_26_10_3    R_1_26_11_1    R_1_26_11_2
    R_1_26_11_3    R_1_26_12_1    R_1_26_12_2    R_1_26_12_3    R_1_26_13_1    R_1_26_13_2    R_1_26_13_3    R_1_26_14_1
    R_1_26_14_2    R_1_26_14_3    R_1_26_15_1    R_1_26_15_2    R_1_26_15_3    R_1_26_16_1    R_1_26_16_2    R_1_26_16_3
    R_1_26_17_1    R_1_26_17_2    R_1_26_17_3    R_1_26_18_1    R_1_26_18_2    R_1_26_18_3    R_1_26_19_1    R_1_26_19_2
    R_1_26_19_3     R_1_26_1_1     R_1_26_1_2     R_1_26_1_3    R_1_26_20_1    R_1_26_20_2    R_1_26_20_3    R_1_26_21_1
    R_1_26_21_2    R_1_26_21_3    R_1_26_22_1    R_1_26_22_2    R_1_26_22_3    R_1_26_23_1    R_1_26_23_2    R_1_26_23_3
    R_1_26_24_1    R_1_26_24_2    R_1_26_24_3    R_1_26_25_1    R_1_26_25_2    R_1_26_25_3    R_1_26_26_1    R_1_26_26_2
    R_1_26_26_3    R_1_26_27_1    R_1_26_27_2    R_1_26_27_3    R_1_26_28_1    R_1_26_28_2    R_1_26_28_3    R_1_26_29_1
    R_1_26_29_2    R_1_26_29_3     R_1_26_2_1     R_1_26_2_2     R_1_26_2_3    R_1_26_30_1    R_1_26_30_2    R_1_26_30_3
    R_1_26_31_1    R_1_26_31_2    R_1_26_31_3    R_1_26_32_1    R_1_26_32_2    R_1_26_32_3    R_1_26_33_1    R_1_26_33_2
    R_1_26_33_3    R_1_26_34_1    R_1_26_34_2    R_1_26_34_3    R_1_26_35_1    R_1_26_35_2    R_1_26_35_3    R_1_26_36_1
    R_1_26_36_2    R_1_26_36_3    R_1_26_37_1    R_1_26_37_2    R_1_26_37_3    R_1_26_38_1    R_1_26_38_2    R_1_26_38_3
    R_1_26_39_2    R_1_26_39_3     R_1_26_3_1     R_1_26_3_2     R_1_26_3_3     R_1_26_4_1     R_1_26_4_2     R_1_26_4_3
     R_1_26_5_1     R_1_26_5_2     R_1_26_5_3     R_1_26_6_1     R_1_26_6_2     R_1_26_6_3     R_1_26_7_1     R_1_26_7_2
     R_1_26_7_3     R_1_26_8_1     R_1_26_8_2     R_1_26_8_3     R_1_26_9_1     R_1_26_9_2     R_1_26_9_3     R_1_27_0_1
     R_1_27_0_2     R_1_27_0_3    R_1_27_10_1    R_1_27_10_2    R_1_27_10_3    R_1_27_11_1    R_1_27_11_2    R_1_27_11_3
    R_1_27_12_1    R_1_27_12_2    R_1_27_12_3    R_1_27_13_1    R_1_27_13_2    R_1_27_13_3    R_1_27_14_1    R_1_27_14_2
    R_1_27_14_3    R_1_27_15_1    R_1_27_15_2    R_1_27_15_3    R_1_27_16_1    R_1_27_16_2    R_1_27_16_3    R_1_27_17_1
    R_1_27_17_2    R_1_27_17_3    R_1_27_18_1    R_1_27_18_2    R_1_27_18_3    R_1_27_19_1    R_1_27_19_2    R_1_27_19_3
     R_1_27_1_1     R_1_27_1_2     R_1_27_1_3    R_1_27_20_1    R_1_27_20_2    R_1_27_20_3    R_1_27_21_1    R_1_27_21_2
    R_1_27_21_3    R_1_27_22_1    R_1_27_22_2    R_1_27_22_3    R_1_27_23_1    R_1_27_23_2    R_1_27_23_3    R_1_27_24_1
    R_1_27_24_2    R_1_27_24_3    R_1_27_25_1    R_1_27_25_2    R_1_27_25_3    R_1_27_26_1    R_1_27_26_2    R_1_27_26_3
    R_1_27_27_1    R_1_27_27_2    R_1_27_27_3    R_1_27_28_1    R_1_27_28_2    R_1_27_28_3    R_1_27_29_1    R_1_27_29_2
    R_1_27_29_3     R_1_27_2_1     R_1_27_2_2     R_1_27_2_3    R_1_27_30_1    R_1_27_30_2    R_1_27_30_3    R_1_27_31_1
    R_1_27_31_2    R_1_27_31_3    R_1_27_32_1    R_1_27_32_2    R_1_27_32_3    R_1_27_33_1    R_1_27_33_2    R_1_27_33_3
    R_1_27_34_1    R_1_27_34_2    R_1_27_34_3    R_1_27_35_1    R_1_27_35_2    R_1_27_35_3    R_1_27_36_1    R_1_27_36_2
    R_1_27_36_3    R_1_27_37_1    R_1_27_37_2    R_1_27_37_3    R_1_27_38_1    R_1_27_38_2    R_1_27_38_3    R_1_27_39_2
    R_1_27_39_3     R_1_27_3_1     R_1_27_3_2     R_1_27_3_3     R_1_27_4_1     R_1_27_4_2     R_1_27_4_3     R_1_27_5_1
     R_1_27_5_2     R_1_27_5_3     R_1_27_6_1     R_1_27_6_2     R_1_27_6_3     R_1_27_7_1     R_1_27_7_2     R_1_27_7_3
     R_1_27_8_1     R_1_27_8_2     R_1_27_8_3     R_1_27_9_1     R_1_27_9_2     R_1_27_9_3     R_1_28_0_1     R_1_28_0_2
     R_1_28_0_3    R_1_28_10_1    R_1_28_10_2    R_1_28_10_3    R_1_28_11_1    R_1_28_11_2    R_1_28_11_3    R_1_28_12_1
    R_1_28_12_2    R_1_28_12_3    R_1_28_13_1    R_1_28_13_2    R_1_28_13_3    R_1_28_14_1    R_1_28_14_2    R_1_28_14_3
    R_1_28_15_1    R_1_28_15_2    R_1_28_15_3    R_1_28_16_1    R_1_28_16_2    R_1_28_16_3    R_1_28_17_1    R_1_28_17_2
    R_1_28_17_3    R_1_28_18_1    R_1_28_18_2    R_1_28_18_3    R_1_28_19_1    R_1_28_19_2    R_1_28_19_3     R_1_28_1_1
     R_1_28_1_2     R_1_28_1_3    R_1_28_20_1    R_1_28_20_2    R_1_28_20_3    R_1_28_21_1    R_1_28_21_2    R_1_28_21_3
    R_1_28_22_1    R_1_28_22_2    R_1_28_22_3    R_1_28_23_1    R_1_28_23_2    R_1_28_23_3    R_1_28_24_1    R_1_28_24_2
    R_1_28_24_3    R_1_28_25_1    R_1_28_25_2    R_1_28_25_3    R_1_28_26_1    R_1_28_26_2    R_1_28_26_3    R_1_28_27_1
    R_1_28_27_2    R_1_28_27_3    R_1_28_28_1    R_1_28_28_2    R_1_28_28_3    R_1_28_29_1    R_1_28_29_2    R_1_28_29_3
     R_1_28_2_1     R_1_28_2_2     R_1_28_2_3    R_1_28_30_1    R_1_28_30_2    R_1_28_30_3    R_1_28_31_1    R_1_28_31_2
    R_1_28_31_3    R_1_28_32_1    R_1_28_32_2    R_1_28_32_3    R_1_28_33_1    R_1_28_33_2    R_1_28_33_3    R_1_28_34_1
    R_1_28_34_2    R_1_28_34_3    R_1_28_35_1    R_1_28_35_2    R_1_28_35_3    R_1_28_36_1    R_1_28_36_2    R_1_28_36_3
    R_1_28_37_1    R_1_28_37_2    R_1_28_37_3    R_1_28_38_1    R_1_28_38_2    R_1_28_38_3    R_1_28_39_2    R_1_28_39_3
     R_1_28_3_1     R_1_28_3_2     R_1_28_3_3     R_1_28_4_1     R_1_28_4_2     R_1_28_4_3     R_1_28_5_1     R_1_28_5_2
     R_1_28_5_3     R_1_28_6_1     R_1_28_6_2     R_1_28_6_3     R_1_28_7_1     R_1_28_7_2     R_1_28_7_3     R_1_28_8_1
     R_1_28_8_2     R_1_28_8_3     R_1_28_9_1     R_1_28_9_2     R_1_28_9_3     R_1_29_0_1     R_1_29_0_2     R_1_29_0_3
    R_1_29_10_1    R_1_29_10_2    R_1_29_10_3    R_1_29_11_1    R_1_29_11_2    R_1_29_11_3    R_1_29_12_1    R_1_29_12_2
    R_1_29_12_3    R_1_29_13_1    R_1_29_13_2    R_1_29_13_3    R_1_29_14_1    R_1_29_14_2    R_1_29_14_3    R_1_29_15_1
    R_1_29_15_2    R_1_29_15_3    R_1_29_16_1    R_1_29_16_2    R_1_29_16_3    R_1_29_17_1    R_1_29_17_2    R_1_29_17_3
    R_1_29_18_1    R_1_29_18_2    R_1_29_18_3    R_1_29_19_1    R_1_29_19_2    R_1_29_19_3     R_1_29_1_1     R_1_29_1_2
     R_1_29_1_3    R_1_29_20_1    R_1_29_20_2    R_1_29_20_3    R_1_29_21_1    R_1_29_21_2    R_1_29_21_3    R_1_29_22_1
    R_1_29_22_2    R_1_29_22_3    R_1_29_23_1    R_1_29_23_2    R_1_29_23_3    R_1_29_24_1    R_1_29_24_2    R_1_29_24_3
    R_1_29_25_1    R_1_29_25_2    R_1_29_25_3    R_1_29_26_1    R_1_29_26_2    R_1_29_26_3    R_1_29_27_1    R_1_29_27_2
    R_1_29_27_3    R_1_29_28_1    R_1_29_28_2    R_1_29_28_3    R_1_29_29_1    R_1_29_29_2    R_1_29_29_3     R_1_29_2_1
     R_1_29_2_2     R_1_29_2_3    R_1_29_30_1    R_1_29_30_2    R_1_29_30_3    R_1_29_31_1    R_1_29_31_2    R_1_29_31_3
    R_1_29_32_1    R_1_29_32_2    R_1_29_32_3    R_1_29_33_1    R_1_29_33_2    R_1_29_33_3    R_1_29_34_1    R_1_29_34_2
    R_1_29_34_3    R_1_29_35_1    R_1_29_35_2    R_1_29_35_3    R_1_29_36_1    R_1_29_36_2    R_1_29_36_3    R_1_29_37_1
    R_1_29_37_2    R_1_29_37_3    R_1_29_38_1    R_1_29_38_2    R_1_29_38_3    R_1_29_39_2    R_1_29_39_3     R_1_29_3_1
     R_1_29_3_2     R_1_29_3_3     R_1_29_4_1     R_1_29_4_2     R_1_29_4_3     R_1_29_5_1     R_1_29_5_2     R_1_29_5_3
     R_1_29_6_1     R_1_29_6_2     R_1_29_6_3     R_1_29_7_1     R_1_29_7_2     R_1_29_7_3     R_1_29_8_1     R_1_29_8_2
     R_1_29_8_3     R_1_29_9_1     R_1_29_9_2     R_1_29_9_3     R_1_30_0_1     R_1_30_0_2     R_1_30_0_3    R_1_30_10_1
    R_1_30_10_2    R_1_30_10_3    R_1_30_11_1    R_1_30_11_2    R_1_30_11_3    R_1_30_12_1    R_1_30_12_2    R_1_30_12_3
    R_1_30_13_1    R_1_30_13_2    R_1_30_13_3    R_1_30_14_1    R_1_30_14_2    R_1_30_14_3    R_1_30_15_1    R_1_30_15_2
    R_1_30_15_3    R_1_30_16_1    R_1_30_16_2    R_1_30_16_3    R_1_30_17_1    R_1_30_17_2    R_1_30_17_3    R_1_30_18_1
    R_1_30_18_2    R_1_30_18_3    R_1_30_19_1    R_1_30_19_2    R_1_30_19_3     R_1_30_1_1     R_1_30_1_2     R_1_30_1_3
    R_1_30_20_1    R_1_30_20_2    R_1_30_20_3    R_1_30_21_1    R_1_30_21_2    R_1_30_21_3    R_1_30_22_1    R_1_30_22_2
    R_1_30_22_3    R_1_30_23_1    R_1_30_23_2    R_1_30_23_3    R_1_30_24_1    R_1_30_24_2    R_1_30_24_3    R_1_30_25_1
    R_1_30_25_2    R_1_30_25_3    R_1_30_26_1    R_1_30_26_2    R_1_30_26_3    R_1_30_27_1    R_1_30_27_2    R_1_30_27_3
    R_1_30_28_1    R_1_30_28_2    R_1_30_28_3    R_1_30_29_1    R_1_30_29_2    R_1_30_29_3     R_1_30_2_1     R_1_30_2_2
     R_1_30_2_3    R_1_30_30_1    R_1_30_30_2    R_1_30_30_3    R_1_30_31_1    R_1_30_31_2    R_1_30_31_3    R_1_30_32_1
    R_1_30_32_2    R_1_30_32_3    R_1_30_33_1    R_1_30_33_2    R_1_30_33_3    R_1_30_34_1    R_1_30_34_2    R_1_30_34_3
    R_1_30_35_1    R_1_30_35_2    R_1_30_35_3    R_1_30_36_1    R_1_30_36_2    R_1_30_36_3    R_1_30_37_1    R_1_30_37_2
    R_1_30_37_3    R_1_30_38_1    R_1_30_38_2    R_1_30_38_3    R_1_30_39_2    R_1_30_39_3     R_1_30_3_1     R_1_30_3_2
     R_1_30_3_3     R_1_30_4_1     R_1_30_4_2     R_1_30_4_3     R_1_30_5_1     R_1_30_5_2     R_1_30_5_3     R_1_30_6_1
     R_1_30_6_2     R_1_30_6_3     R_1_30_7_1     R_1_30_7_2     R_1_30_7_3     R_1_30_8_1     R_1_30_8_2     R_1_30_8_3
     R_1_30_9_1     R_1_30_9_2     R_1_30_9_3     R_1_31_0_1     R_1_31_0_2     R_1_31_0_3    R_1_31_10_1    R_1_31_10_2
    R_1_31_10_3    R_1_31_11_1    R_1_31_11_2    R_1_31_11_3    R_1_31_12_1    R_1_31_12_2    R_1_31_12_3    R_1_31_13_1
    R_1_31_13_2    R_1_31_13_3    R_1_31_14_1    R_1_31_14_2    R_1_31_14_3    R_1_31_15_1    R_1_31_15_2    R_1_31_15_3
    R_1_31_16_1    R_1_31_16_2    R_1_31_16_3    R_1_31_17_1    R_1_31_17_2    R_1_31_17_3    R_1_31_18_1    R_1_31_18_2
    R_1_31_18_3    R_1_31_19_1    R_1_31_19_2    R_1_31_19_3     R_1_31_1_1     R_1_31_1_2     R_1_31_1_3    R_1_31_20_1
    R_1_31_20_2    R_1_31_20_3    R_1_31_21_1    R_1_31_21_2    R_1_31_21_3    R_1_31_22_1    R_1_31_22_2    R_1_31_22_3
    R_1_31_23_1    R_1_31_23_2    R_1_31_23_3    R_1_31_24_1    R_1_31_24_2    R_1_31_24_3    R_1_31_25_1    R_1_31_25_2
    R_1_31_25_3    R_1_31_26_1    R_1_31_26_2    R_1_31_26_3    R_1_31_27_1    R_1_31_27_2    R_1_31_27_3    R_1_31_28_1
    R_1_31_28_2    R_1_31_28_3    R_1_31_29_1    R_1_31_29_2    R_1_31_29_3     R_1_31_2_1     R_1_31_2_2     R_1_31_2_3
    R_1_31_30_1    R_1_31_30_2    R_1_31_30_3    R_1_31_31_1    R_1_31_31_2    R_1_31_31_3    R_1_31_32_1    R_1_31_32_2
    R_1_31_32_3    R_1_31_33_1    R_1_31_33_2    R_1_31_33_3    R_1_31_34_1    R_1_31_34_2    R_1_31_34_3    R_1_31_35_1
    R_1_31_35_2    R_1_31_35_3    R_1_31_36_1    R_1_31_36_2    R_1_31_36_3    R_1_31_37_1    R_1_31_37_2    R_1_31_37_3
    R_1_31_38_1    R_1_31_38_2    R_1_31_38_3    R_1_31_39_2    R_1_31_39_3     R_1_31_3_1     R_1_31_3_2     R_1_31_3_3
     R_1_31_4_1     R_1_31_4_2     R_1_31_4_3     R_1_31_5_1     R_1_31_5_2     R_1_31_5_3     R_1_31_6_1     R_1_31_6_2
     R_1_31_6_3     R_1_31_7_1     R_1_31_7_2     R_1_31_7_3     R_1_31_8_1     R_1_31_8_2     R_1_31_8_3     R_1_31_9_1
     R_1_31_9_2     R_1_31_9_3     R_1_32_0_1     R_1_32_0_2     R_1_32_0_3    R_1_32_10_1    R_1_32_10_2    R_1_32_10_3
    R_1_32_11_1    R_1_32_11_2    R_1_32_11_3    R_1_32_12_1    R_1_32_12_2    R_1_32_12_3    R_1_32_13_1    R_1_32_13_2
    R_1_32_13_3    R_1_32_14_1    R_1_32_14_2    R_1_32_14_3    R_1_32_15_1    R_1_32_15_2    R_1_32_15_3    R_1_32_16_1
    R_1_32_16_2    R_1_32_16_3    R_1_32_17_1    R_1_32_17_2    R_1_32_17_3    R_1_32_18_1    R_1_32_18_2    R_1_32_18_3
    R_1_32_19_1    R_1_32_19_2    R_1_32_19_3     R_1_32_1_1     R_1_32_1_2     R_1_32_1_3    R_1_32_20_1    R_1_32_20_2
    R_1_32_20_3    R_1_32_21_1    R_1_32_21_2    R_1_32_21_3    R_1_32_22_1    R_1_32_22_2    R_1_32_22_3    R_1_32_23_1
    R_1_32_23_2    R_1_32_23_3    R_1_32_24_1    R_1_32_24_2    R_1_32_24_3    R_1_32_25_1    R_1_32_25_2    R_1_32_25_3
    R_1_32_26_1    R_1_32_26_2    R_1_32_26_3    R_1_32_27_1    R_1_32_27_2    R_1_32_27_3    R_1_32_28_1    R_1_32_28_2
    R_1_32_28_3    R_1_32_29_1    R_1_32_29_2    R_1_32_29_3     R_1_32_2_1     R_1_32_2_2     R_1_32_2_3    R_1_32_30_1
    R_1_32_30_2    R_1_32_30_3    R_1_32_31_1    R_1_32_31_2    R_1_32_31_3    R_1_32_32_1    R_1_32_32_2    R_1_32_32_3
    R_1_32_33_1    R_1_32_33_2    R_1_32_33_3    R_1_32_34_1    R_1_32_34_2    R_1_32_34_3    R_1_32_35_1    R_1_32_35_2
    R_1_32_35_3    R_1_32_36_1    R_1_32_36_2    R_1_32_36_3    R_1_32_37_1    R_1_32_37_2    R_1_32_37_3    R_1_32_38_1
    R_1_32_38_2    R_1_32_38_3    R_1_32_39_2    R_1_32_39_3     R_1_32_3_1     R_1_32_3_2     R_1_32_3_3     R_1_32_4_1
     R_1_32_4_2     R_1_32_4_3     R_1_32_5_1     R_1_32_5_2     R_1_32_5_3     R_1_32_6_1     R_1_32_6_2     R_1_32_6_3
     R_1_32_7_1     R_1_32_7_2     R_1_32_7_3     R_1_32_8_1     R_1_32_8_2     R_1_32_8_3     R_1_32_9_1     R_1_32_9_2
     R_1_32_9_3     R_1_33_0_1     R_1_33_0_2     R_1_33_0_3    R_1_33_10_1    R_1_33_10_2    R_1_33_10_3    R_1_33_11_1
    R_1_33_11_2    R_1_33_11_3    R_1_33_12_1    R_1_33_12_2    R_1_33_12_3    R_1_33_13_1    R_1_33_13_2    R_1_33_13_3
    R_1_33_14_1    R_1_33_14_2    R_1_33_14_3    R_1_33_15_1    R_1_33_15_2    R_1_33_15_3    R_1_33_16_1    R_1_33_16_2
    R_1_33_16_3    R_1_33_17_1    R_1_33_17_2    R_1_33_17_3    R_1_33_18_1    R_1_33_18_2    R_1_33_18_3    R_1_33_19_1
    R_1_33_19_2    R_1_33_19_3     R_1_33_1_1     R_1_33_1_2     R_1_33_1_3    R_1_33_20_1    R_1_33_20_2    R_1_33_20_3
    R_1_33_21_1    R_1_33_21_2    R_1_33_21_3    R_1_33_22_1    R_1_33_22_2    R_1_33_22_3    R_1_33_23_1    R_1_33_23_2
    R_1_33_23_3    R_1_33_24_1    R_1_33_24_2    R_1_33_24_3    R_1_33_25_1    R_1_33_25_2    R_1_33_25_3    R_1_33_26_1
    R_1_33_26_2    R_1_33_26_3    R_1_33_27_1    R_1_33_27_2    R_1_33_27_3    R_1_33_28_1    R_1_33_28_2    R_1_33_28_3
    R_1_33_29_1    R_1_33_29_2    R_1_33_29_3     R_1_33_2_1     R_1_33_2_2     R_1_33_2_3    R_1_33_30_1    R_1_33_30_2
    R_1_33_30_3    R_1_33_31_1    R_1_33_31_2    R_1_33_31_3    R_1_33_32_1    R_1_33_32_2    R_1_33_32_3    R_1_33_33_1
    R_1_33_33_2    R_1_33_33_3    R_1_33_34_1    R_1_33_34_2    R_1_33_34_3    R_1_33_35_1    R_1_33_35_2    R_1_33_35_3
    R_1_33_36_1    R_1_33_36_2    R_1_33_36_3    R_1_33_37_1    R_1_33_37_2    R_1_33_37_3    R_1_33_38_1    R_1_33_38_2
    R_1_33_38_3    R_1_33_39_2    R_1_33_39_3     R_1_33_3_1     R_1_33_3_2     R_1_33_3_3     R_1_33_4_1     R_1_33_4_2
     R_1_33_4_3     R_1_33_5_1     R_1_33_5_2     R_1_33_5_3     R_1_33_6_1     R_1_33_6_2     R_1_33_6_3     R_1_33_7_1
     R_1_33_7_2     R_1_33_7_3     R_1_33_8_1     R_1_33_8_2     R_1_33_8_3     R_1_33_9_1     R_1_33_9_2     R_1_33_9_3
     R_1_34_0_1     R_1_34_0_2     R_1_34_0_3    R_1_34_10_1    R_1_34_10_2    R_1_34_10_3    R_1_34_11_1    R_1_34_11_2
    R_1_34_11_3    R_1_34_12_1    R_1_34_12_2    R_1_34_12_3    R_1_34_13_1    R_1_34_13_2    R_1_34_13_3    R_1_34_14_1
    R_1_34_14_2    R_1_34_14_3    R_1_34_15_1    R_1_34_15_2    R_1_34_15_3    R_1_34_16_1    R_1_34_16_2    R_1_34_16_3
    R_1_34_17_1    R_1_34_17_2    R_1_34_17_3    R_1_34_18_1    R_1_34_18_2    R_1_34_18_3    R_1_34_19_1    R_1_34_19_2
    R_1_34_19_3     R_1_34_1_1     R_1_34_1_2     R_1_34_1_3    R_1_34_20_1    R_1_34_20_2    R_1_34_20_3    R_1_34_21_1
    R_1_34_21_2    R_1_34_21_3    R_1_34_22_1    R_1_34_22_2    R_1_34_22_3    R_1_34_23_1    R_1_34_23_2    R_1_34_23_3
    R_1_34_24_1    R_1_34_24_2    R_1_34_24_3    R_1_34_25_1    R_1_34_25_2    R_1_34_25_3    R_1_34_26_1    R_1_34_26_2
    R_1_34_26_3    R_1_34_27_1    R_1_34_27_2    R_1_34_27_3    R_1_34_28_1    R_1_34_28_2    R_1_34_28_3    R_1_34_29_1
    R_1_34_29_2    R_1_34_29_3     R_1_34_2_1     R_1_34_2_2     R_1_34_2_3    R_1_34_30_1    R_1_34_30_2    R_1_34_30_3
    R_1_34_31_1    R_1_34_31_2    R_1_34_31_3    R_1_34_32_1    R_1_34_32_2    R_1_34_32_3    R_1_34_33_1    R_1_34_33_2
    R_1_34_33_3    R_1_34_34_1    R_1_34_34_2    R_1_34_34_3    R_1_34_35_1    R_1_34_35_2    R_1_34_35_3    R_1_34_36_1
    R_1_34_36_2    R_1_34_36_3    R_1_34_37_1    R_1_34_37_2    R_1_34_37_3    R_1_34_38_1    R_1_34_38_2    R_1_34_38_3
    R_1_34_39_2    R_1_34_39_3     R_1_34_3_1     R_1_34_3_2     R_1_34_3_3     R_1_34_4_1     R_1_34_4_2     R_1_34_4_3
     R_1_34_5_1     R_1_34_5_2     R_1_34_5_3     R_1_34_6_1     R_1_34_6_2     R_1_34_6_3     R_1_34_7_1     R_1_34_7_2
     R_1_34_7_3     R_1_34_8_1     R_1_34_8_2     R_1_34_8_3     R_1_34_9_1     R_1_34_9_2     R_1_34_9_3     R_1_35_0_1
     R_1_35_0_2     R_1_35_0_3    R_1_35_10_1    R_1_35_10_2    R_1_35_10_3    R_1_35_11_1    R_1_35_11_2    R_1_35_11_3
    R_1_35_12_1    R_1_35_12_2    R_1_35_12_3    R_1_35_13_1    R_1_35_13_2    R_1_35_13_3    R_1_35_14_1    R_1_35_14_2
    R_1_35_14_3    R_1_35_15_1    R_1_35_15_2    R_1_35_15_3    R_1_35_16_1    R_1_35_16_2    R_1_35_16_3    R_1_35_17_1
    R_1_35_17_2    R_1_35_17_3    R_1_35_18_1    R_1_35_18_2    R_1_35_18_3    R_1_35_19_1    R_1_35_19_2    R_1_35_19_3
     R_1_35_1_1     R_1_35_1_2     R_1_35_1_3    R_1_35_20_1    R_1_35_20_2    R_1_35_20_3    R_1_35_21_1    R_1_35_21_2
    R_1_35_21_3    R_1_35_22_1    R_1_35_22_2    R_1_35_22_3    R_1_35_23_1    R_1_35_23_2    R_1_35_23_3    R_1_35_24_1
    R_1_35_24_2    R_1_35_24_3    R_1_35_25_1    R_1_35_25_2    R_1_35_25_3    R_1_35_26_1    R_1_35_26_2    R_1_35_26_3
    R_1_35_27_1    R_1_35_27_2    R_1_35_27_3    R_1_35_28_1    R_1_35_28_2    R_1_35_28_3    R_1_35_29_1    R_1_35_29_2
    R_1_35_29_3     R_1_35_2_1     R_1_35_2_2     R_1_35_2_3    R_1_35_30_1    R_1_35_30_2    R_1_35_30_3    R_1_35_31_1
    R_1_35_31_2    R_1_35_31_3    R_1_35_32_1    R_1_35_32_2    R_1_35_32_3    R_1_35_33_1    R_1_35_33_2    R_1_35_33_3
    R_1_35_34_1    R_1_35_34_2    R_1_35_34_3    R_1_35_35_1    R_1_35_35_2    R_1_35_35_3    R_1_35_36_1    R_1_35_36_2
    R_1_35_36_3    R_1_35_37_1    R_1_35_37_2    R_1_35_37_3    R_1_35_38_1    R_1_35_38_2    R_1_35_38_3    R_1_35_39_2
    R_1_35_39_3     R_1_35_3_1     R_1_35_3_2     R_1_35_3_3     R_1_35_4_1     R_1_35_4_2     R_1_35_4_3     R_1_35_5_1
     R_1_35_5_2     R_1_35_5_3     R_1_35_6_1     R_1_35_6_2     R_1_35_6_3     R_1_35_7_1     R_1_35_7_2     R_1_35_7_3
     R_1_35_8_1     R_1_35_8_2     R_1_35_8_3     R_1_35_9_1     R_1_35_9_2     R_1_35_9_3     R_1_36_0_1     R_1_36_0_2
     R_1_36_0_3    R_1_36_10_1    R_1_36_10_2    R_1_36_10_3    R_1_36_11_1    R_1_36_11_2    R_1_36_11_3    R_1_36_12_1
    R_1_36_12_2    R_1_36_12_3    R_1_36_13_1    R_1_36_13_2    R_1_36_13_3    R_1_36_14_1    R_1_36_14_2    R_1_36_14_3
    R_1_36_15_1    R_1_36_15_2    R_1_36_15_3    R_1_36_16_1    R_1_36_16_2    R_1_36_16_3    R_1_36_17_1    R_1_36_17_2
    R_1_36_17_3    R_1_36_18_1    R_1_36_18_2    R_1_36_18_3    R_1_36_19_1    R_1_36_19_2    R_1_36_19_3     R_1_36_1_1
     R_1_36_1_2     R_1_36_1_3    R_1_36_20_1    R_1_36_20_2    R_1_36_20_3    R_1_36_21_1    R_1_36_21_2    R_1_36_21_3
    R_1_36_22_1    R_1_36_22_2    R_1_36_22_3    R_1_36_23_1    R_1_36_23_2    R_1_36_23_3    R_1_36_24_1    R_1_36_24_2
    R_1_36_24_3    R_1_36_25_1    R_1_36_25_2    R_1_36_25_3    R_1_36_26_1    R_1_36_26_2    R_1_36_26_3    R_1_36_27_1
    R_1_36_27_2    R_1_36_27_3    R_1_36_28_1    R_1_36_28_2    R_1_36_28_3    R_1_36_29_1    R_1_36_29_2    R_1_36_29_3
     R_1_36_2_1     R_1_36_2_2     R_1_36_2_3    R_1_36_30_1    R_1_36_30_2    R_1_36_30_3    R_1_36_31_1    R_1_36_31_2
    R_1_36_31_3    R_1_36_32_1    R_1_36_32_2    R_1_36_32_3    R_1_36_33_1    R_1_36_33_2    R_1_36_33_3    R_1_36_34_1
    R_1_36_34_2    R_1_36_34_3    R_1_36_35_1    R_1_36_35_2    R_1_36_35_3    R_1_36_36_1    R_1_36_36_2    R_1_36_36_3
    R_1_36_37_1    R_1_36_37_2    R_1_36_37_3    R_1_36_38_1    R_1_36_38_2    R_1_36_38_3    R_1_36_39_2    R_1_36_39_3
     R_1_36_3_1     R_1_36_3_2     R_1_36_3_3     R_1_36_4_1     R_1_36_4_2     R_1_36_4_3     R_1_36_5_1     R_1_36_5_2
     R_1_36_5_3     R_1_36_6_1     R_1_36_6_2     R_1_36_6_3     R_1_36_7_1     R_1_36_7_2     R_1_36_7_3     R_1_36_8_1
     R_1_36_8_2     R_1_36_8_3     R_1_36_9_1     R_1_36_9_2     R_1_36_9_3     R_1_37_0_1     R_1_37_0_2     R_1_37_0_3
    R_1_37_10_1    R_1_37_10_2    R_1_37_10_3    R_1_37_11_1    R_1_37_11_2    R_1_37_11_3    R_1_37_12_1    R_1_37_12_2
    R_1_37_12_3    R_1_37_13_1    R_1_37_13_2    R_1_37_13_3    R_1_37_14_1    R_1_37_14_2    R_1_37_14_3    R_1_37_15_1
    R_1_37_15_2    R_1_37_15_3    R_1_37_16_1    R_1_37_16_2    R_1_37_16_3    R_1_37_17_1    R_1_37_17_2    R_1_37_17_3
    R_1_37_18_1    R_1_37_18_2    R_1_37_18_3    R_1_37_19_1    R_1_37_19_2    R_1_37_19_3     R_1_37_1_1     R_1_37_1_2
     R_1_37_1_3    R_1_37_20_1    R_1_37_20_2    R_1_37_20_3    R_1_37_21_1    R_1_37_21_2    R_1_37_21_3    R_1_37_22_1
    R_1_37_22_2    R_1_37_22_3    R_1_37_23_1    R_1_37_23_2    R_1_37_23_3    R_1_37_24_1    R_1_37_24_2    R_1_37_24_3
    R_1_37_25_1    R_1_37_25_2    R_1_37_25_3    R_1_37_26_1    R_1_37_26_2    R_1_37_26_3    R_1_37_27_1    R_1_37_27_2
    R_1_37_27_3    R_1_37_28_1    R_1_37_28_2    R_1_37_28_3    R_1_37_29_1    R_1_37_29_2    R_1_37_29_3     R_1_37_2_1
     R_1_37_2_2     R_1_37_2_3    R_1_37_30_1    R_1_37_30_2    R_1_37_30_3    R_1_37_31_1    R_1_37_31_2    R_1_37_31_3
    R_1_37_32_1    R_1_37_32_2    R_1_37_32_3    R_1_37_33_1    R_1_37_33_2    R_1_37_33_3    R_1_37_34_1    R_1_37_34_2
    R_1_37_34_3    R_1_37_35_1    R_1_37_35_2    R_1_37_35_3    R_1_37_36_1    R_1_37_36_2    R_1_37_36_3    R_1_37_37_1
    R_1_37_37_2    R_1_37_37_3    R_1_37_38_1    R_1_37_38_2    R_1_37_38_3    R_1_37_39_2    R_1_37_39_3     R_1_37_3_1
     R_1_37_3_2     R_1_37_3_3     R_1_37_4_1     R_1_37_4_2     R_1_37_4_3     R_1_37_5_1     R_1_37_5_2     R_1_37_5_3
     R_1_37_6_1     R_1_37_6_2     R_1_37_6_3     R_1_37_7_1     R_1_37_7_2     R_1_37_7_3     R_1_37_8_1     R_1_37_8_2
     R_1_37_8_3     R_1_37_9_1     R_1_37_9_2     R_1_37_9_3     R_1_38_0_1     R_1_38_0_2     R_1_38_0_3    R_1_38_10_1
    R_1_38_10_2    R_1_38_10_3    R_1_38_11_1    R_1_38_11_2    R_1_38_11_3    R_1_38_12_1    R_1_38_12_2    R_1_38_12_3
    R_1_38_13_1    R_1_38_13_2    R_1_38_13_3    R_1_38_14_1    R_1_38_14_2    R_1_38_14_3    R_1_38_15_1    R_1_38_15_2
    R_1_38_15_3    R_1_38_16_1    R_1_38_16_2    R_1_38_16_3    R_1_38_17_1    R_1_38_17_2    R_1_38_17_3    R_1_38_18_1
    R_1_38_18_2    R_1_38_18_3    R_1_38_19_1    R_1_38_19_2    R_1_38_19_3     R_1_38_1_1     R_1_38_1_2     R_1_38_1_3
    R_1_38_20_1    R_1_38_20_2    R_1_38_20_3    R_1_38_21_1    R_1_38_21_2    R_1_38_21_3    R_1_38_22_1    R_1_38_22_2
    R_1_38_22_3    R_1_38_23_1    R_1_38_23_2    R_1_38_23_3    R_1_38_24_1    R_1_38_24_2    R_1_38_24_3    R_1_38_25_1
    R_1_38_25_2    R_1_38_25_3    R_1_38_26_1    R_1_38_26_2    R_1_38_26_3    R_1_38_27_1    R_1_38_27_2    R_1_38_27_3
    R_1_38_28_1    R_1_38_28_2    R_1_38_28_3    R_1_38_29_1    R_1_38_29_2    R_1_38_29_3     R_1_38_2_1     R_1_38_2_2
     R_1_38_2_3    R_1_38_30_1    R_1_38_30_2    R_1_38_30_3    R_1_38_31_1    R_1_38_31_2    R_1_38_31_3    R_1_38_32_1
    R_1_38_32_2    R_1_38_32_3    R_1_38_33_1    R_1_38_33_2    R_1_38_33_3    R_1_38_34_1    R_1_38_34_2    R_1_38_34_3
    R_1_38_35_1    R_1_38_35_2    R_1_38_35_3    R_1_38_36_1    R_1_38_36_2    R_1_38_36_3    R_1_38_37_1    R_1_38_37_2
    R_1_38_37_3    R_1_38_38_1    R_1_38_38_2    R_1_38_38_3    R_1_38_39_2    R_1_38_39_3     R_1_38_3_1     R_1_38_3_2
     R_1_38_3_3     R_1_38_4_1     R_1_38_4_2     R_1_38_4_3     R_1_38_5_1     R_1_38_5_2     R_1_38_5_3     R_1_38_6_1
     R_1_38_6_2     R_1_38_6_3     R_1_38_7_1     R_1_38_7_2     R_1_38_7_3     R_1_38_8_1     R_1_38_8_2     R_1_38_8_3
     R_1_38_9_1     R_1_38_9_2     R_1_38_9_3     R_1_39_0_1     R_1_39_0_3    R_1_39_10_1    R_1_39_10_3    R_1_39_11_1
    R_1_39_11_3    R_1_39_12_1    R_1_39_12_3    R_1_39_13_1    R_1_39_13_3    R_1_39_14_1    R_1_39_14_3    R_1_39_15_1
    R_1_39_15_3    R_1_39_16_1    R_1_39_16_3    R_1_39_17_1    R_1_39_17_3    R_1_39_18_1    R_1_39_18_3    R_1_39_19_1
    R_1_39_19_3     R_1_39_1_1     R_1_39_1_3    R_1_39_20_1    R_1_39_20_3    R_1_39_21_1    R_1_39_21_3    R_1_39_22_1
    R_1_39_22_3    R_1_39_23_1    R_1_39_23_3    R_1_39_24_1    R_1_39_24_3    R_1_39_25_1    R_1_39_25_3    R_1_39_26_1
    R_1_39_26_3    R_1_39_27_1    R_1_39_27_3    R_1_39_28_1    R_1_39_28_3    R_1_39_29_1    R_1_39_29_3     R_1_39_2_1
     R_1_39_2_3    R_1_39_30_1    R_1_39_30_3    R_1_39_31_1    R_1_39_31_3    R_1_39_32_1    R_1_39_32_3    R_1_39_33_1
    R_1_39_33_3    R_1_39_34_1    R_1_39_34_3    R_1_39_35_1    R_1_39_35_3    R_1_39_36_1    R_1_39_36_3    R_1_39_37_1
    R_1_39_37_3    R_1_39_38_1    R_1_39_38_3    R_1_39_39_3     R_1_39_3_1     R_1_39_3_3     R_1_39_4_1     R_1_39_4_3
     R_1_39_5_1     R_1_39_5_3     R_1_39_6_1     R_1_39_6_3     R_1_39_7_1     R_1_39_7_3     R_1_39_8_1     R_1_39_8_3
     R_1_39_9_1     R_1_39_9_3
         model R level 1 (Resistor)R level 1 (Resistor)R level 1 (Resistor)R level 1 (Resistor)R level 1 (Resistor)R level 1 (Resistor)R level 1 (Resistor)
R level 1 (Resistor)R level 1 (Resistor)R level 1 (Resistor)R level 1 (Resistor)R level 1 (Resistor)R level 1 (Resistor)R level 1 (Resistor)R level 1 (Resistor)
R level 1 (Resistor)R level 1 (Resistor)R level 1 (Resistor)R level 1 (Resistor)R level 1 (Resistor)R level 1 (Resistor)R level 1 (Resistor)R level 1 (Resistor)
R level 1 (Resistor)R level 1 (Resistor)R level 1 (Resistor)R level 1 (Resistor)R level 1 (Resistor)R level 1 (Resistor)R level 1 (Resistor)R level 1 (Resistor)
R level 1 (Resistor)R level 1 (Resistor)R level 1 (Resistor)R level 1 (Resistor)R level 1 (Resistor)R level 1 (Resistor)R level 1 (Resistor)R level 1 (Resistor)
R level 1 (Resistor)R level 1 (Resistor)R level 1 (Resistor)R level 1 (Resistor)R level 1 (Resistor)R level 1 (Resistor)R level 1 (Resistor)R level 1 (Resistor)
R level 1 (Resistor)R level 1 (Resistor)R level 1 (Resistor)R level 1 (Resistor)R level 1 (Resistor)R level 1 (Resistor)R level 1 (Resistor)R level 1 (Resistor)
R level 1 (Resistor)R level 1 (Resistor)R level 1 (Resistor)R level 1 (Resistor)R level 1 (Resistor)R level 1 (Resistor)R level 1 (Resistor)R level 1 (Resistor)
R level 1 (Resistor)R level 1 (Resistor)R level 1 (Resistor)R level 1 (Resistor)R level 1 (Resistor)R level 1 (Resistor)R level 1 (Resistor)R level 1 (Resistor)
R level 1 (Resistor)R level 1 (Resistor)R level 1 (Resistor)R level 1 (Resistor)R level 1 (Resistor)R level 1 (Resistor)R level 1 (Resistor)R level 1 (Resistor)
R level 1 (Resistor)R level 1 (Resistor)R level 1 (Resistor)R level 1 (Resistor)R level 1 (Resistor)R level 1 (Resistor)R level 1 (Resistor)R level 1 (Resistor)
R level 1 (Resistor)R level 1 (Resistor)R level 1 (Resistor)R level 1 (Resistor)R level 1 (Resistor)R level 1 (Resistor)R level 1 (Resistor)R level 1 (Resistor)
R level 1 (Resistor)R level 1 (Resistor)R level 1 (Resistor)R level 1 (Resistor)R level 1 (Resistor)R level 1 (Resistor)R level 1 (Resistor)R level 1 (Resistor)
R level 1 (Resistor)R level 1 (Resistor)R level 1 (Resistor)R level 1 (Resistor)R level 1 (Resistor)R level 1 (Resistor)R level 1 (Resistor)R level 1 (Resistor)
R level 1 (Resistor)R level 1 (Resistor)R level 1 (Resistor)R level 1 (Resistor)R level 1 (Resistor)R level 1 (Resistor)R level 1 (Resistor)R level 1 (Resistor)
R level 1 (Resistor)R level 1 (Resistor)R level 1 (Resistor)R level 1 (Resistor)R level 1 (Resistor)R level 1 (Resistor)R level 1 (Resistor)R level 1 (Resistor)
R level 1 (Resistor)R level 1 (Resistor)R level 1 (Resistor)R level 1 (Resistor)R level 1 (Resistor)R level 1 (Resistor)R level 1 (Resistor)R level 1 (Resistor)
R level 1 (Resistor)R level 1 (Resistor)R level 1 (Resistor)R level 1 (Resistor)R level 1 (Resistor)R level 1 (Resistor)R level 1 (Resistor)R level 1 (Resistor)
R level 1 (Resistor)R level 1 (Resistor)R level 1 (Resistor)R level 1 (Resistor)R level 1 (Resistor)R level 1 (Resistor)R level 1 (Resistor)R level 1 (Resistor)
R level 1 (Resistor)R level 1 (Resistor)R level 1 (Resistor)R level 1 (Resistor)R level 1 (Resistor)R level 1 (Resistor)R level 1 (Resistor)R level 1 (Resistor)
R level 1 (Resistor)R level 1 (Resistor)R level 1 (Resistor)R level 1 (Resistor)R level 1 (Resistor)R level 1 (Resistor)R level 1 (Resistor)R level 1 (Resistor)
R level 1 (Resistor)R level 1 (Resistor)R level 1 (Resistor)R level 1 (Resistor)R level 1 (Resistor)R level 1 (Resistor)R level 1 (Resistor)R level 1 (Resistor)
R level 1 (Resistor)R level 1 (Resistor)R level 1 (Resistor)R level 1 (Resistor)R level 1 (Resistor)R level 1 (Resistor)R level 1 (Resistor)R level 1 (Resistor)
R level 1 (Resistor)R level 1 (Resistor)R level 1 (Resistor)R level 1 (Resistor)R level 1 (Resistor)R level 1 (Resistor)R level 1 (Resistor)R level 1 (Resistor)
R level 1 (Resistor)R level 1 (Resistor)R level 1 (Resistor)R level 1 (Resistor)R level 1 (Resistor)R level 1 (Resistor)R level 1 (Resistor)R level 1 (Resistor)
R level 1 (Resistor)R level 1 (Resistor)R level 1 (Resistor)R level 1 (Resistor)R level 1 (Resistor)R level 1 (Resistor)R level 1 (Resistor)R level 1 (Resistor)
R level 1 (Resistor)R level 1 (Resistor)R level 1 (Resistor)R level 1 (Resistor)R level 1 (Resistor)R level 1 (Resistor)R level 1 (Resistor)R level 1 (Resistor)
R level 1 (Resistor)R level 1 (Resistor)R level 1 (Resistor)R level 1 (Resistor)R level 1 (Resistor)R level 1 (Resistor)R level 1 (Resistor)R level 1 (Resistor)
R level 1 (Resistor)R level 1 (Resistor)R level 1 (Resistor)R level 1 (Resistor)R level 1 (Resistor)R level 1 (Resistor)R level 1 (Resistor)R level 1 (Resistor)
R level 1 (Resistor)R level 1 (Resistor)R level 1 (Resistor)R level 1 (Resistor)R level 1 (Resistor)R level 1 (Resistor)R level 1 (Resistor)R level 1 (Resistor)
R level 1 (Resistor)R level 1 (Resistor)R level 1 (Resistor)R level 1 (Resistor)R level 1 (Resistor)R level 1 (Resistor)R level 1 (Resistor)R level 1 (Resistor)
R level 1 (Resistor)R level 1 (Resistor)R level 1 (Resistor)R level 1 (Resistor)R level 1 (Resistor)R level 1 (Resistor)R level 1 (Resistor)R level 1 (Resistor)
R level 1 (Resistor)R level 1 (Resistor)R level 1 (Resistor)R level 1 (Resistor)R level 1 (Resistor)R level 1 (Resistor)R level 1 (Resistor)R level 1 (Resistor)
R level 1 (Resistor)R level 1 (Resistor)R level 1 (Resistor)R level 1 (Resistor)R level 1 (Resistor)R level 1 (Resistor)R level 1 (Resistor)R level 1 (Resistor)
R level 1 (Resistor)R level 1 (Resistor)R level 1 (Resistor)R level 1 (Resistor)R level 1 (Resistor)R level 1 (Resistor)R level 1 (Resistor)R level 1 (Resistor)
R level 1 (Resistor)R level 1 (Resistor)R level 1 (Resistor)R level 1 (Resistor)R level 1 (Resistor)R level 1 (Resistor)R level 1 (Resistor)R level 1 (Resistor)
R level 1 (Resistor)R level 1 (Resistor)R level 1 (Resistor)R level 1 (Resistor)R level 1 (Resistor)R level 1 (Resistor)R level 1 (Resistor)R level 1 (Resistor)
R level 1 (Resistor)R level 1 (Resistor)R level 1 (Resistor)R level 1 (Resistor)R level 1 (Resistor)R level 1 (Resistor)R level 1 (Resistor)R level 1 (Resistor)
R level 1 (Resistor)R level 1 (Resistor)R level 1 (Resistor)R level 1 (Resistor)R level 1 (Resistor)R level 1 (Resistor)R level 1 (Resistor)R level 1 (Resistor)
R level 1 (Resistor)R level 1 (Resistor)R level 1 (Resistor)R level 1 (Resistor)R level 1 (Resistor)R level 1 (Resistor)R level 1 (Resistor)R level 1 (Resistor)
R level 1 (Resistor)R level 1 (Resistor)R level 1 (Resistor)R level 1 (Resistor)R level 1 (Resistor)R level 1 (Resistor)R level 1 (Resistor)R level 1 (Resistor)
R level 1 (Resistor)R level 1 (Resistor)R level 1 (Resistor)R level 1 (Resistor)R level 1 (Resistor)R level 1 (Resistor)R level 1 (Resistor)R level 1 (Resistor)
R level 1 (Resistor)R level 1 (Resistor)R level 1 (Resistor)R level 1 (Resistor)R level 1 (Resistor)R level 1 (Resistor)R level 1 (Resistor)R level 1 (Resistor)
R level 1 (Resistor)R level 1 (Resistor)R level 1 (Resistor)R level 1 (Resistor)R level 1 (Resistor)R level 1 (Resistor)R level 1 (Resistor)R level 1 (Resistor)
R level 1 (Resistor)R level 1 (Resistor)R level 1 (Resistor)R level 1 (Resistor)R level 1 (Resistor)R level 1 (Resistor)R level 1 (Resistor)R level 1 (Resistor)
R level 1 (Resistor)R level 1 (Resistor)R level 1 (Resistor)R level 1 (Resistor)R level 1 (Resistor)R level 1 (Resistor)R level 1 (Resistor)R level 1 (Resistor)
R level 1 (Resistor)R level 1 (Resistor)R level 1 (Resistor)R level 1 (Resistor)R level 1 (Resistor)R level 1 (Resistor)R level 1 (Resistor)R level 1 (Resistor)
R level 1 (Resistor)R level 1 (Resistor)R level 1 (Resistor)R level 1 (Resistor)R level 1 (Resistor)R level 1 (Resistor)R level 1 (Resistor)R level 1 (Resistor)
R level 1 (Resistor)R level 1 (Resistor)R level 1 (Resistor)R level 1 (Resistor)R level 1 (Resistor)R level 1 (Resistor)R level 1 (Resistor)R level 1 (Resistor)
R level 1 (Resistor)R level 1 (Resistor)R level 1 (Resistor)R level 1 (Resistor)R level 1 (Resistor)R level 1 (Resistor)R level 1 (Resistor)R level 1 (Resistor)
R level 1 (Resistor)R level 1 (Resistor)R level 1 (Resistor)R level 1 (Resistor)R level 1 (Resistor)R level 1 (Resistor)R level 1 (Resistor)R level 1 (Resistor)
R level 1 (Resistor)R level 1 (Resistor)R level 1 (Resistor)R level 1 (Resistor)R level 1 (Resistor)R level 1 (Resistor)R level 1 (Resistor)R level 1 (Resistor)
R level 1 (Resistor)R level 1 (Resistor)R level 1 (Resistor)R level 1 (Resistor)R level 1 (Resistor)R level 1 (Resistor)R level 1 (Resistor)R level 1 (Resistor)
R level 1 (Resistor)R level 1 (Resistor)R level 1 (Resistor)R level 1 (Resistor)R level 1 (Resistor)R level 1 (Resistor)R level 1 (Resistor)R level 1 (Resistor)
R level 1 (Resistor)R level 1 (Resistor)R level 1 (Resistor)R level 1 (Resistor)R level 1 (Resistor)R level 1 (Resistor)R level 1 (Resistor)R level 1 (Resistor)
R level 1 (Resistor)R level 1 (Resistor)R level 1 (Resistor)R level 1 (Resistor)R level 1 (Resistor)R level 1 (Resistor)R level 1 (Resistor)R level 1 (Resistor)
R level 1 (Resistor)R level 1 (Resistor)R level 1 (Resistor)R level 1 (Resistor)R level 1 (Resistor)R level 1 (Resistor)R level 1 (Resistor)R level 1 (Resistor)
R level 1 (Resistor)R level 1 (Resistor)R level 1 (Resistor)R level 1 (Resistor)R level 1 (Resistor)R level 1 (Resistor)R level 1 (Resistor)R level 1 (Resistor)
R level 1 (Resistor)R level 1 (Resistor)R level 1 (Resistor)R level 1 (Resistor)R level 1 (Resistor)R level 1 (Resistor)R level 1 (Resistor)R level 1 (Resistor)
R level 1 (Resistor)R level 1 (Resistor)R level 1 (Resistor)R level 1 (Resistor)R level 1 (Resistor)R level 1 (Resistor)R level 1 (Resistor)R level 1 (Resistor)
R level 1 (Resistor)R level 1 (Resistor)R level 1 (Resistor)R level 1 (Resistor)R level 1 (Resistor)R level 1 (Resistor)R level 1 (Resistor)R level 1 (Resistor)
R level 1 (Resistor)R level 1 (Resistor)R level 1 (Resistor)R level 1 (Resistor)R level 1 (Resistor)R level 1 (Resistor)R level 1 (Resistor)R level 1 (Resistor)
R level 1 (Resistor)R level 1 (Resistor)R level 1 (Resistor)R level 1 (Resistor)R level 1 (Resistor)R level 1 (Resistor)R level 1 (Resistor)R level 1 (Resistor)
R level 1 (Resistor)R level 1 (Resistor)R level 1 (Resistor)R level 1 (Resistor)R level 1 (Resistor)R level 1 (Resistor)R level 1 (Resistor)R level 1 (Resistor)
R level 1 (Resistor)R level 1 (Resistor)R level 1 (Resistor)R level 1 (Resistor)R level 1 (Resistor)R level 1 (Resistor)R level 1 (Resistor)R level 1 (Resistor)
R level 1 (Resistor)R level 1 (Resistor)R level 1 (Resistor)R level 1 (Resistor)R level 1 (Resistor)R level 1 (Resistor)R level 1 (Resistor)R level 1 (Resistor)
R level 1 (Resistor)R level 1 (Resistor)R level 1 (Resistor)R level 1 (Resistor)R level 1 (Resistor)R level 1 (Resistor)R level 1 (Resistor)R level 1 (Resistor)
R level 1 (Resistor)R level 1 (Resistor)R level 1 (Resistor)R level 1 (Resistor)R level 1 (Resistor)R level 1 (Resistor)R level 1 (Resistor)R level 1 (Resistor)
R level 1 (Resistor)R level 1 (Resistor)R level 1 (Resistor)R level 1 (Resistor)R level 1 (Resistor)R level 1 (Resistor)R level 1 (Resistor)R level 1 (Resistor)
R level 1 (Resistor)R level 1 (Resistor)R level 1 (Resistor)R level 1 (Resistor)R level 1 (Resistor)R level 1 (Resistor)R level 1 (Resistor)R level 1 (Resistor)
R level 1 (Resistor)R level 1 (Resistor)R level 1 (Resistor)R level 1 (Resistor)R level 1 (Resistor)R level 1 (Resistor)R level 1 (Resistor)R level 1 (Resistor)
R level 1 (Resistor)R level 1 (Resistor)R level 1 (Resistor)R level 1 (Resistor)R level 1 (Resistor)R level 1 (Resistor)R level 1 (Resistor)R level 1 (Resistor)
R level 1 (Resistor)R level 1 (Resistor)R level 1 (Resistor)R level 1 (Resistor)R level 1 (Resistor)R level 1 (Resistor)R level 1 (Resistor)R level 1 (Resistor)
R level 1 (Resistor)R level 1 (Resistor)R level 1 (Resistor)R level 1 (Resistor)R level 1 (Resistor)R level 1 (Resistor)R level 1 (Resistor)R level 1 (Resistor)
R level 1 (Resistor)R level 1 (Resistor)R level 1 (Resistor)R level 1 (Resistor)R level 1 (Resistor)R level 1 (Resistor)R level 1 (Resistor)R level 1 (Resistor)
R level 1 (Resistor)R level 1 (Resistor)R level 1 (Resistor)R level 1 (Resistor)R level 1 (Resistor)R level 1 (Resistor)R level 1 (Resistor)R level 1 (Resistor)
R level 1 (Resistor)R level 1 (Resistor)R level 1 (Resistor)R level 1 (Resistor)R level 1 (Resistor)R level 1 (Resistor)R level 1 (Resistor)R level 1 (Resistor)
R level 1 (Resistor)R level 1 (Resistor)R level 1 (Resistor)R level 1 (Resistor)R level 1 (Resistor)R level 1 (Resistor)R level 1 (Resistor)R level 1 (Resistor)
R level 1 (Resistor)R level 1 (Resistor)R level 1 (Resistor)R level 1 (Resistor)R level 1 (Resistor)R level 1 (Resistor)R level 1 (Resistor)R level 1 (Resistor)
R level 1 (Resistor)R level 1 (Resistor)R level 1 (Resistor)R level 1 (Resistor)R level 1 (Resistor)R level 1 (Resistor)R level 1 (Resistor)R level 1 (Resistor)
R level 1 (Resistor)R level 1 (Resistor)R level 1 (Resistor)R level 1 (Resistor)R level 1 (Resistor)R level 1 (Resistor)R level 1 (Resistor)R level 1 (Resistor)
R level 1 (Resistor)R level 1 (Resistor)R level 1 (Resistor)R level 1 (Resistor)R level 1 (Resistor)R level 1 (Resistor)R level 1 (Resistor)R level 1 (Resistor)
R level 1 (Resistor)R level 1 (Resistor)R level 1 (Resistor)R level 1 (Resistor)R level 1 (Resistor)R level 1 (Resistor)R level 1 (Resistor)R level 1 (Resistor)
R level 1 (Resistor)R level 1 (Resistor)R level 1 (Resistor)R level 1 (Resistor)R level 1 (Resistor)R level 1 (Resistor)R level 1 (Resistor)R level 1 (Resistor)
R level 1 (Resistor)R level 1 (Resistor)R level 1 (Resistor)R level 1 (Resistor)R level 1 (Resistor)R level 1 (Resistor)R level 1 (Resistor)R level 1 (Resistor)
R level 1 (Resistor)R level 1 (Resistor)R level 1 (Resistor)R level 1 (Resistor)R level 1 (Resistor)R level 1 (Resistor)R level 1 (Resistor)R level 1 (Resistor)
R level 1 (Resistor)R level 1 (Resistor)R level 1 (Resistor)R level 1 (Resistor)R level 1 (Resistor)R level 1 (Resistor)R level 1 (Resistor)R level 1 (Resistor)
R level 1 (Resistor)R level 1 (Resistor)R level 1 (Resistor)R level 1 (Resistor)R level 1 (Resistor)R level 1 (Resistor)R level 1 (Resistor)R level 1 (Resistor)
R level 1 (Resistor)R level 1 (Resistor)R level 1 (Resistor)R level 1 (Resistor)R level 1 (Resistor)R level 1 (Resistor)R level 1 (Resistor)R level 1 (Resistor)
R level 1 (Resistor)R level 1 (Resistor)R level 1 (Resistor)R level 1 (Resistor)R level 1 (Resistor)R level 1 (Resistor)R level 1 (Resistor)R level 1 (Resistor)
R level 1 (Resistor)R level 1 (Resistor)R level 1 (Resistor)R level 1 (Resistor)R level 1 (Resistor)R level 1 (Resistor)R level 1 (Resistor)R level 1 (Resistor)
R level 1 (Resistor)R level 1 (Resistor)R level 1 (Resistor)R level 1 (Resistor)R level 1 (Resistor)R level 1 (Resistor)R level 1 (Resistor)R level 1 (Resistor)
R level 1 (Resistor)R level 1 (Resistor)R level 1 (Resistor)R level 1 (Resistor)R level 1 (Resistor)R level 1 (Resistor)R level 1 (Resistor)R level 1 (Resistor)
R level 1 (Resistor)R level 1 (Resistor)R level 1 (Resistor)R level 1 (Resistor)R level 1 (Resistor)R level 1 (Resistor)R level 1 (Resistor)R level 1 (Resistor)
R level 1 (Resistor)R level 1 (Resistor)R level 1 (Resistor)R level 1 (Resistor)R level 1 (Resistor)R level 1 (Resistor)R level 1 (Resistor)R level 1 (Resistor)
R level 1 (Resistor)R level 1 (Resistor)R level 1 (Resistor)R level 1 (Resistor)R level 1 (Resistor)R level 1 (Resistor)R level 1 (Resistor)R level 1 (Resistor)
R level 1 (Resistor)R level 1 (Resistor)R level 1 (Resistor)R level 1 (Resistor)R level 1 (Resistor)R level 1 (Resistor)R level 1 (Resistor)R level 1 (Resistor)
R level 1 (Resistor)R level 1 (Resistor)R level 1 (Resistor)R level 1 (Resistor)R level 1 (Resistor)R level 1 (Resistor)R level 1 (Resistor)R level 1 (Resistor)
R level 1 (Resistor)R level 1 (Resistor)R level 1 (Resistor)R level 1 (Resistor)R level 1 (Resistor)R level 1 (Resistor)R level 1 (Resistor)R level 1 (Resistor)
R level 1 (Resistor)R level 1 (Resistor)R level 1 (Resistor)R level 1 (Resistor)R level 1 (Resistor)R level 1 (Resistor)R level 1 (Resistor)R level 1 (Resistor)
R level 1 (Resistor)R level 1 (Resistor)R level 1 (Resistor)R level 1 (Resistor)R level 1 (Resistor)R level 1 (Resistor)R level 1 (Resistor)R level 1 (Resistor)
R level 1 (Resistor)R level 1 (Resistor)R level 1 (Resistor)R level 1 (Resistor)R level 1 (Resistor)R level 1 (Resistor)R level 1 (Resistor)R level 1 (Resistor)
R level 1 (Resistor)R level 1 (Resistor)R level 1 (Resistor)R level 1 (Resistor)R level 1 (Resistor)R level 1 (Resistor)R level 1 (Resistor)R level 1 (Resistor)
R level 1 (Resistor)R level 1 (Resistor)R level 1 (Resistor)R level 1 (Resistor)R level 1 (Resistor)R level 1 (Resistor)R level 1 (Resistor)R level 1 (Resistor)
R level 1 (Resistor)R level 1 (Resistor)R level 1 (Resistor)R level 1 (Resistor)R level 1 (Resistor)R level 1 (Resistor)R level 1 (Resistor)R level 1 (Resistor)
R level 1 (Resistor)R level 1 (Resistor)R level 1 (Resistor)R level 1 (Resistor)R level 1 (Resistor)R level 1 (Resistor)R level 1 (Resistor)R level 1 (Resistor)
R level 1 (Resistor)R level 1 (Resistor)R level 1 (Resistor)R level 1 (Resistor)R level 1 (Resistor)R level 1 (Resistor)R level 1 (Resistor)R level 1 (Resistor)
R level 1 (Resistor)R level 1 (Resistor)R level 1 (Resistor)R level 1 (Resistor)R level 1 (Resistor)R level 1 (Resistor)R level 1 (Resistor)R level 1 (Resistor)
R level 1 (Resistor)R level 1 (Resistor)R level 1 (Resistor)R level 1 (Resistor)R level 1 (Resistor)R level 1 (Resistor)R level 1 (Resistor)R level 1 (Resistor)
R level 1 (Resistor)R level 1 (Resistor)R level 1 (Resistor)R level 1 (Resistor)R level 1 (Resistor)R level 1 (Resistor)R level 1 (Resistor)R level 1 (Resistor)
R level 1 (Resistor)R level 1 (Resistor)R level 1 (Resistor)R level 1 (Resistor)R level 1 (Resistor)R level 1 (Resistor)R level 1 (Resistor)R level 1 (Resistor)
R level 1 (Resistor)R level 1 (Resistor)R level 1 (Resistor)R level 1 (Resistor)R level 1 (Resistor)R level 1 (Resistor)R level 1 (Resistor)R level 1 (Resistor)
R level 1 (Resistor)R level 1 (Resistor)R level 1 (Resistor)R level 1 (Resistor)R level 1 (Resistor)R level 1 (Resistor)R level 1 (Resistor)R level 1 (Resistor)
R level 1 (Resistor)R level 1 (Resistor)R level 1 (Resistor)R level 1 (Resistor)R level 1 (Resistor)R level 1 (Resistor)R level 1 (Resistor)R level 1 (Resistor)
R level 1 (Resistor)R level 1 (Resistor)R level 1 (Resistor)R level 1 (Resistor)R level 1 (Resistor)R level 1 (Resistor)R level 1 (Resistor)R level 1 (Resistor)
R level 1 (Resistor)R level 1 (Resistor)R level 1 (Resistor)R level 1 (Resistor)R level 1 (Resistor)R level 1 (Resistor)R level 1 (Resistor)R level 1 (Resistor)
R level 1 (Resistor)R level 1 (Resistor)R level 1 (Resistor)R level 1 (Resistor)R level 1 (Resistor)R level 1 (Resistor)R level 1 (Resistor)R level 1 (Resistor)
R level 1 (Resistor)R level 1 (Resistor)R level 1 (Resistor)R level 1 (Resistor)R level 1 (Resistor)R level 1 (Resistor)R level 1 (Resistor)R level 1 (Resistor)
R level 1 (Resistor)R level 1 (Resistor)R level 1 (Resistor)R level 1 (Resistor)R level 1 (Resistor)R level 1 (Resistor)R level 1 (Resistor)R level 1 (Resistor)
R level 1 (Resistor)R level 1 (Resistor)R level 1 (Resistor)R level 1 (Resistor)R level 1 (Resistor)R level 1 (Resistor)R level 1 (Resistor)R level 1 (Resistor)
R level 1 (Resistor)R level 1 (Resistor)R level 1 (Resistor)R level 1 (Resistor)R level 1 (Resistor)R level 1 (Resistor)R level 1 (Resistor)R level 1 (Resistor)
R level 1 (Resistor)R level 1 (Resistor)R level 1 (Resistor)R level 1 (Resistor)R level 1 (Resistor)R level 1 (Resistor)R level 1 (Resistor)R level 1 (Resistor)
R level 1 (Resistor)R level 1 (Resistor)R level 1 (Resistor)R level 1 (Resistor)R level 1 (Resistor)R level 1 (Resistor)R level 1 (Resistor)R level 1 (Resistor)
R level 1 (Resistor)R level 1 (Resistor)R level 1 (Resistor)R level 1 (Resistor)R level 1 (Resistor)R level 1 (Resistor)R level 1 (Resistor)R level 1 (Resistor)
R level 1 (Resistor)R level 1 (Resistor)R level 1 (Resistor)R level 1 (Resistor)R level 1 (Resistor)R level 1 (Resistor)R level 1 (Resistor)R level 1 (Resistor)
R level 1 (Resistor)R level 1 (Resistor)R level 1 (Resistor)R level 1 (Resistor)R level 1 (Resistor)R level 1 (Resistor)R level 1 (Resistor)R level 1 (Resistor)
R level 1 (Resistor)R level 1 (Resistor)R level 1 (Resistor)R level 1 (Resistor)R level 1 (Resistor)R level 1 (Resistor)R level 1 (Resistor)R level 1 (Resistor)
R level 1 (Resistor)R level 1 (Resistor)R level 1 (Resistor)R level 1 (Resistor)R level 1 (Resistor)R level 1 (Resistor)R level 1 (Resistor)R level 1 (Resistor)
R level 1 (Resistor)R level 1 (Resistor)R level 1 (Resistor)R level 1 (Resistor)R level 1 (Resistor)R level 1 (Resistor)R level 1 (Resistor)R level 1 (Resistor)
R level 1 (Resistor)R level 1 (Resistor)R level 1 (Resistor)R level 1 (Resistor)R level 1 (Resistor)R level 1 (Resistor)R level 1 (Resistor)R level 1 (Resistor)
R level 1 (Resistor)R level 1 (Resistor)R level 1 (Resistor)R level 1 (Resistor)R level 1 (Resistor)R level 1 (Resistor)R level 1 (Resistor)R level 1 (Resistor)
R level 1 (Resistor)R level 1 (Resistor)R level 1 (Resistor)R level 1 (Resistor)R level 1 (Resistor)R level 1 (Resistor)R level 1 (Resistor)R level 1 (Resistor)
R level 1 (Resistor)R level 1 (Resistor)R level 1 (Resistor)R level 1 (Resistor)R level 1 (Resistor)R level 1 (Resistor)R level 1 (Resistor)R level 1 (Resistor)
R level 1 (Resistor)R level 1 (Resistor)R level 1 (Resistor)R level 1 (Resistor)R level 1 (Resistor)R level 1 (Resistor)R level 1 (Resistor)R level 1 (Resistor)
R level 1 (Resistor)R level 1 (Resistor)R level 1 (Resistor)R level 1 (Resistor)R level 1 (Resistor)R level 1 (Resistor)R level 1 (Resistor)R level 1 (Resistor)
R level 1 (Resistor)R level 1 (Resistor)R level 1 (Resistor)R level 1 (Resistor)R level 1 (Resistor)R level 1 (Resistor)R level 1 (Resistor)R level 1 (Resistor)
R level 1 (Resistor)R level 1 (Resistor)R level 1 (Resistor)R level 1 (Resistor)R level 1 (Resistor)R level 1 (Resistor)R level 1 (Resistor)R level 1 (Resistor)
R level 1 (Resistor)R level 1 (Resistor)R level 1 (Resistor)R level 1 (Resistor)R level 1 (Resistor)R level 1 (Resistor)R level 1 (Resistor)R level 1 (Resistor)
R level 1 (Resistor)R level 1 (Resistor)R level 1 (Resistor)R level 1 (Resistor)R level 1 (Resistor)R level 1 (Resistor)R level 1 (Resistor)R level 1 (Resistor)
R level 1 (Resistor)R level 1 (Resistor)R level 1 (Resistor)R level 1 (Resistor)R level 1 (Resistor)R level 1 (Resistor)R level 1 (Resistor)R level 1 (Resistor)
R level 1 (Resistor)R level 1 (Resistor)R level 1 (Resistor)R level 1 (Resistor)R level 1 (Resistor)R level 1 (Resistor)R level 1 (Resistor)R level 1 (Resistor)
R level 1 (Resistor)R level 1 (Resistor)R level 1 (Resistor)R level 1 (Resistor)R level 1 (Resistor)R level 1 (Resistor)R level 1 (Resistor)R level 1 (Resistor)
R level 1 (Resistor)R level 1 (Resistor)R level 1 (Resistor)R level 1 (Resistor)R level 1 (Resistor)R level 1 (Resistor)R level 1 (Resistor)R level 1 (Resistor)
R level 1 (Resistor)R level 1 (Resistor)R level 1 (Resistor)R level 1 (Resistor)R level 1 (Resistor)R level 1 (Resistor)R level 1 (Resistor)R level 1 (Resistor)
R level 1 (Resistor)R level 1 (Resistor)R level 1 (Resistor)R level 1 (Resistor)R level 1 (Resistor)R level 1 (Resistor)R level 1 (Resistor)R level 1 (Resistor)
R level 1 (Resistor)R level 1 (Resistor)R level 1 (Resistor)R level 1 (Resistor)R level 1 (Resistor)R level 1 (Resistor)R level 1 (Resistor)R level 1 (Resistor)
R level 1 (Resistor)R level 1 (Resistor)R level 1 (Resistor)R level 1 (Resistor)R level 1 (Resistor)R level 1 (Resistor)R level 1 (Resistor)R level 1 (Resistor)
R level 1 (Resistor)R level 1 (Resistor)R level 1 (Resistor)R level 1 (Resistor)R level 1 (Resistor)R level 1 (Resistor)R level 1 (Resistor)R level 1 (Resistor)
R level 1 (Resistor)R level 1 (Resistor)R level 1 (Resistor)R level 1 (Resistor)R level 1 (Resistor)R level 1 (Resistor)R level 1 (Resistor)R level 1 (Resistor)
R level 1 (Resistor)R level 1 (Resistor)R level 1 (Resistor)R level 1 (Resistor)R level 1 (Resistor)R level 1 (Resistor)R level 1 (Resistor)R level 1 (Resistor)
R level 1 (Resistor)R level 1 (Resistor)R level 1 (Resistor)R level 1 (Resistor)R level 1 (Resistor)R level 1 (Resistor)R level 1 (Resistor)R level 1 (Resistor)
R level 1 (Resistor)R level 1 (Resistor)R level 1 (Resistor)R level 1 (Resistor)R level 1 (Resistor)R level 1 (Resistor)R level 1 (Resistor)R level 1 (Resistor)
R level 1 (Resistor)R level 1 (Resistor)R level 1 (Resistor)R level 1 (Resistor)R level 1 (Resistor)R level 1 (Resistor)R level 1 (Resistor)R level 1 (Resistor)
R level 1 (Resistor)R level 1 (Resistor)R level 1 (Resistor)R level 1 (Resistor)R level 1 (Resistor)R level 1 (Resistor)R level 1 (Resistor)R level 1 (Resistor)
R level 1 (Resistor)R level 1 (Resistor)R level 1 (Resistor)R level 1 (Resistor)R level 1 (Resistor)R level 1 (Resistor)R level 1 (Resistor)R level 1 (Resistor)
R level 1 (Resistor)R level 1 (Resistor)R level 1 (Resistor)R level 1 (Resistor)R level 1 (Resistor)R level 1 (Resistor)R level 1 (Resistor)R level 1 (Resistor)
R level 1 (Resistor)R level 1 (Resistor)R level 1 (Resistor)R level 1 (Resistor)R level 1 (Resistor)R level 1 (Resistor)R level 1 (Resistor)R level 1 (Resistor)
R level 1 (Resistor)R level 1 (Resistor)R level 1 (Resistor)R level 1 (Resistor)R level 1 (Resistor)R level 1 (Resistor)R level 1 (Resistor)R level 1 (Resistor)
R level 1 (Resistor)R level 1 (Resistor)R level 1 (Resistor)R level 1 (Resistor)R level 1 (Resistor)R level 1 (Resistor)R level 1 (Resistor)R level 1 (Resistor)
R level 1 (Resistor)R level 1 (Resistor)R level 1 (Resistor)R level 1 (Resistor)R level 1 (Resistor)R level 1 (Resistor)R level 1 (Resistor)R level 1 (Resistor)
R level 1 (Resistor)R level 1 (Resistor)R level 1 (Resistor)R level 1 (Resistor)R level 1 (Resistor)R level 1 (Resistor)R level 1 (Resistor)R level 1 (Resistor)
R level 1 (Resistor)R level 1 (Resistor)R level 1 (Resistor)R level 1 (Resistor)R level 1 (Resistor)R level 1 (Resistor)R level 1 (Resistor)R level 1 (Resistor)
R level 1 (Resistor)R level 1 (Resistor)R level 1 (Resistor)R level 1 (Resistor)R level 1 (Resistor)R level 1 (Resistor)R level 1 (Resistor)R level 1 (Resistor)
R level 1 (Resistor)R level 1 (Resistor)R level 1 (Resistor)R level 1 (Resistor)R level 1 (Resistor)R level 1 (Resistor)R level 1 (Resistor)R level 1 (Resistor)
R level 1 (Resistor)R level 1 (Resistor)R level 1 (Resistor)R level 1 (Resistor)R level 1 (Resistor)R level 1 (Resistor)R level 1 (Resistor)R level 1 (Resistor)
R level 1 (Resistor)R level 1 (Resistor)R level 1 (Resistor)R level 1 (Resistor)R level 1 (Resistor)R level 1 (Resistor)R level 1 (Resistor)R level 1 (Resistor)
R level 1 (Resistor)R level 1 (Resistor)R level 1 (Resistor)R level 1 (Resistor)R level 1 (Resistor)R level 1 (Resistor)R level 1 (Resistor)R level 1 (Resistor)
R level 1 (Resistor)R level 1 (Resistor)R level 1 (Resistor)R level 1 (Resistor)R level 1 (Resistor)R level 1 (Resistor)R level 1 (Resistor)R level 1 (Resistor)
R level 1 (Resistor)R level 1 (Resistor)R level 1 (Resistor)R level 1 (Resistor)R level 1 (Resistor)R level 1 (Resistor)R level 1 (Resistor)R level 1 (Resistor)
R level 1 (Resistor)R level 1 (Resistor)R level 1 (Resistor)R level 1 (Resistor)R level 1 (Resistor)R level 1 (Resistor)R level 1 (Resistor)R level 1 (Resistor)
R level 1 (Resistor)R level 1 (Resistor)R level 1 (Resistor)R level 1 (Resistor)R level 1 (Resistor)R level 1 (Resistor)R level 1 (Resistor)R level 1 (Resistor)
R level 1 (Resistor)R level 1 (Resistor)R level 1 (Resistor)R level 1 (Resistor)R level 1 (Resistor)R level 1 (Resistor)R level 1 (Resistor)R level 1 (Resistor)
R level 1 (Resistor)R level 1 (Resistor)R level 1 (Resistor)R level 1 (Resistor)R level 1 (Resistor)R level 1 (Resistor)R level 1 (Resistor)R level 1 (Resistor)
R level 1 (Resistor)R level 1 (Resistor)R level 1 (Resistor)R level 1 (Resistor)R level 1 (Resistor)R level 1 (Resistor)R level 1 (Resistor)R level 1 (Resistor)
R level 1 (Resistor)R level 1 (Resistor)R level 1 (Resistor)R level 1 (Resistor)R level 1 (Resistor)R level 1 (Resistor)R level 1 (Resistor)R level 1 (Resistor)
R level 1 (Resistor)R level 1 (Resistor)R level 1 (Resistor)R level 1 (Resistor)R level 1 (Resistor)R level 1 (Resistor)R level 1 (Resistor)R level 1 (Resistor)
R level 1 (Resistor)R level 1 (Resistor)R level 1 (Resistor)R level 1 (Resistor)R level 1 (Resistor)R level 1 (Resistor)R level 1 (Resistor)R level 1 (Resistor)
R level 1 (Resistor)R level 1 (Resistor)R level 1 (Resistor)R level 1 (Resistor)R level 1 (Resistor)R level 1 (Resistor)R level 1 (Resistor)R level 1 (Resistor)
R level 1 (Resistor)R level 1 (Resistor)R level 1 (Resistor)R level 1 (Resistor)R level 1 (Resistor)R level 1 (Resistor)R level 1 (Resistor)R level 1 (Resistor)
R level 1 (Resistor)R level 1 (Resistor)R level 1 (Resistor)R level 1 (Resistor)R level 1 (Resistor)R level 1 (Resistor)R level 1 (Resistor)R level 1 (Resistor)
R level 1 (Resistor)R level 1 (Resistor)R level 1 (Resistor)R level 1 (Resistor)R level 1 (Resistor)R level 1 (Resistor)R level 1 (Resistor)R level 1 (Resistor)
R level 1 (Resistor)R level 1 (Resistor)R level 1 (Resistor)R level 1 (Resistor)R level 1 (Resistor)R level 1 (Resistor)R level 1 (Resistor)R level 1 (Resistor)
R level 1 (Resistor)R level 1 (Resistor)R level 1 (Resistor)R level 1 (Resistor)R level 1 (Resistor)R level 1 (Resistor)R level 1 (Resistor)R level 1 (Resistor)
R level 1 (Resistor)R level 1 (Resistor)R level 1 (Resistor)R level 1 (Resistor)R level 1 (Resistor)R level 1 (Resistor)R level 1 (Resistor)R level 1 (Resistor)
R level 1 (Resistor)R level 1 (Resistor)R level 1 (Resistor)R level 1 (Resistor)R level 1 (Resistor)R level 1 (Resistor)R level 1 (Resistor)R level 1 (Resistor)
R level 1 (Resistor)R level 1 (Resistor)R level 1 (Resistor)R level 1 (Resistor)R level 1 (Resistor)R level 1 (Resistor)R level 1 (Resistor)R level 1 (Resistor)
R level 1 (Resistor)R level 1 (Resistor)R level 1 (Resistor)R level 1 (Resistor)R level 1 (Resistor)R level 1 (Resistor)R level 1 (Resistor)R level 1 (Resistor)
R level 1 (Resistor)R level 1 (Resistor)R level 1 (Resistor)R level 1 (Resistor)R level 1 (Resistor)R level 1 (Resistor)R level 1 (Resistor)R level 1 (Resistor)
R level 1 (Resistor)R level 1 (Resistor)R level 1 (Resistor)R level 1 (Resistor)R level 1 (Resistor)R level 1 (Resistor)R level 1 (Resistor)R level 1 (Resistor)
R level 1 (Resistor)R level 1 (Resistor)R level 1 (Resistor)R level 1 (Resistor)R level 1 (Resistor)R level 1 (Resistor)R level 1 (Resistor)R level 1 (Resistor)
R level 1 (Resistor)R level 1 (Resistor)R level 1 (Resistor)R level 1 (Resistor)R level 1 (Resistor)R level 1 (Resistor)R level 1 (Resistor)R level 1 (Resistor)
R level 1 (Resistor)R level 1 (Resistor)R level 1 (Resistor)R level 1 (Resistor)R level 1 (Resistor)R level 1 (Resistor)R level 1 (Resistor)R level 1 (Resistor)
R level 1 (Resistor)R level 1 (Resistor)R level 1 (Resistor)R level 1 (Resistor)R level 1 (Resistor)R level 1 (Resistor)R level 1 (Resistor)R level 1 (Resistor)
R level 1 (Resistor)R level 1 (Resistor)R level 1 (Resistor)R level 1 (Resistor)R level 1 (Resistor)R level 1 (Resistor)R level 1 (Resistor)R level 1 (Resistor)
R level 1 (Resistor)R level 1 (Resistor)R level 1 (Resistor)R level 1 (Resistor)R level 1 (Resistor)R level 1 (Resistor)R level 1 (Resistor)R level 1 (Resistor)
R level 1 (Resistor)R level 1 (Resistor)R level 1 (Resistor)R level 1 (Resistor)R level 1 (Resistor)R level 1 (Resistor)R level 1 (Resistor)R level 1 (Resistor)
R level 1 (Resistor)R level 1 (Resistor)R level 1 (Resistor)R level 1 (Resistor)R level 1 (Resistor)R level 1 (Resistor)R level 1 (Resistor)R level 1 (Resistor)
R level 1 (Resistor)R level 1 (Resistor)R level 1 (Resistor)R level 1 (Resistor)R level 1 (Resistor)R level 1 (Resistor)R level 1 (Resistor)R level 1 (Resistor)
R level 1 (Resistor)R level 1 (Resistor)R level 1 (Resistor)R level 1 (Resistor)R level 1 (Resistor)R level 1 (Resistor)R level 1 (Resistor)R level 1 (Resistor)
R level 1 (Resistor)R level 1 (Resistor)R level 1 (Resistor)R level 1 (Resistor)R level 1 (Resistor)R level 1 (Resistor)R level 1 (Resistor)R level 1 (Resistor)
R level 1 (Resistor)R level 1 (Resistor)R level 1 (Resistor)R level 1 (Resistor)R level 1 (Resistor)R level 1 (Resistor)R level 1 (Resistor)R level 1 (Resistor)
R level 1 (Resistor)R level 1 (Resistor)R level 1 (Resistor)R level 1 (Resistor)R level 1 (Resistor)R level 1 (Resistor)R level 1 (Resistor)R level 1 (Resistor)
R level 1 (Resistor)R level 1 (Resistor)R level 1 (Resistor)R level 1 (Resistor)R level 1 (Resistor)R level 1 (Resistor)R level 1 (Resistor)R level 1 (Resistor)
R level 1 (Resistor)R level 1 (Resistor)R level 1 (Resistor)R level 1 (Resistor)R level 1 (Resistor)R level 1 (Resistor)R level 1 (Resistor)R level 1 (Resistor)
R level 1 (Resistor)R level 1 (Resistor)R level 1 (Resistor)R level 1 (Resistor)R level 1 (Resistor)R level 1 (Resistor)R level 1 (Resistor)R level 1 (Resistor)
R level 1 (Resistor)R level 1 (Resistor)R level 1 (Resistor)R level 1 (Resistor)R level 1 (Resistor)R level 1 (Resistor)R level 1 (Resistor)R level 1 (Resistor)
R level 1 (Resistor)R level 1 (Resistor)R level 1 (Resistor)R level 1 (Resistor)R level 1 (Resistor)R level 1 (Resistor)R level 1 (Resistor)R level 1 (Resistor)
R level 1 (Resistor)R level 1 (Resistor)R level 1 (Resistor)R level 1 (Resistor)R level 1 (Resistor)R level 1 (Resistor)R level 1 (Resistor)R level 1 (Resistor)
R level 1 (Resistor)R level 1 (Resistor)R level 1 (Resistor)R level 1 (Resistor)R level 1 (Resistor)R level 1 (Resistor)R level 1 (Resistor)R level 1 (Resistor)
R level 1 (Resistor)R level 1 (Resistor)R level 1 (Resistor)R level 1 (Resistor)R level 1 (Resistor)R level 1 (Resistor)R level 1 (Resistor)R level 1 (Resistor)
R level 1 (Resistor)R level 1 (Resistor)R level 1 (Resistor)R level 1 (Resistor)R level 1 (Resistor)R level 1 (Resistor)R level 1 (Resistor)R level 1 (Resistor)
R level 1 (Resistor)R level 1 (Resistor)R level 1 (Resistor)R level 1 (Resistor)R level 1 (Resistor)R level 1 (Resistor)R level 1 (Resistor)R level 1 (Resistor)
R level 1 (Resistor)R level 1 (Resistor)R level 1 (Resistor)R level 1 (Resistor)R level 1 (Resistor)R level 1 (Resistor)R level 1 (Resistor)R level 1 (Resistor)
R level 1 (Resistor)R level 1 (Resistor)R level 1 (Resistor)R level 1 (Resistor)R level 1 (Resistor)R level 1 (Resistor)R level 1 (Resistor)R level 1 (Resistor)
R level 1 (Resistor)R level 1 (Resistor)R level 1 (Resistor)R level 1 (Resistor)R level 1 (Resistor)R level 1 (Resistor)R level 1 (Resistor)R level 1 (Resistor)
R level 1 (Resistor)R level 1 (Resistor)R level 1 (Resistor)R level 1 (Resistor)R level 1 (Resistor)R level 1 (Resistor)R level 1 (Resistor)R level 1 (Resistor)
R level 1 (Resistor)R level 1 (Resistor)R level 1 (Resistor)R level 1 (Resistor)R level 1 (Resistor)R level 1 (Resistor)R level 1 (Resistor)R level 1 (Resistor)
R level 1 (Resistor)R level 1 (Resistor)R level 1 (Resistor)R level 1 (Resistor)R level 1 (Resistor)R level 1 (Resistor)R level 1 (Resistor)R level 1 (Resistor)
R level 1 (Resistor)R level 1 (Resistor)R level 1 (Resistor)R level 1 (Resistor)R level 1 (Resistor)R level 1 (Resistor)R level 1 (Resistor)R level 1 (Resistor)
R level 1 (Resistor)R level 1 (Resistor)R level 1 (Resistor)R level 1 (Resistor)R level 1 (Resistor)R level 1 (Resistor)R level 1 (Resistor)R level 1 (Resistor)
R level 1 (Resistor)R level 1 (Resistor)R level 1 (Resistor)R level 1 (Resistor)R level 1 (Resistor)R level 1 (Resistor)R level 1 (Resistor)R level 1 (Resistor)
R level 1 (Resistor)R level 1 (Resistor)R level 1 (Resistor)R level 1 (Resistor)R level 1 (Resistor)R level 1 (Resistor)R level 1 (Resistor)R level 1 (Resistor)
R level 1 (Resistor)R level 1 (Resistor)R level 1 (Resistor)R level 1 (Resistor)R level 1 (Resistor)R level 1 (Resistor)R level 1 (Resistor)R level 1 (Resistor)
R level 1 (Resistor)R level 1 (Resistor)R level 1 (Resistor)R level 1 (Resistor)R level 1 (Resistor)R level 1 (Resistor)R level 1 (Resistor)R level 1 (Resistor)
R level 1 (Resistor)R level 1 (Resistor)R level 1 (Resistor)R level 1 (Resistor)R level 1 (Resistor)R level 1 (Resistor)R level 1 (Resistor)R level 1 (Resistor)
R level 1 (Resistor)R level 1 (Resistor)R level 1 (Resistor)R level 1 (Resistor)R level 1 (Resistor)R level 1 (Resistor)R level 1 (Resistor)R level 1 (Resistor)
R level 1 (Resistor)R level 1 (Resistor)R level 1 (Resistor)R level 1 (Resistor)R level 1 (Resistor)R level 1 (Resistor)R level 1 (Resistor)R level 1 (Resistor)
R level 1 (Resistor)R level 1 (Resistor)R level 1 (Resistor)R level 1 (Resistor)R level 1 (Resistor)R level 1 (Resistor)R level 1 (Resistor)R level 1 (Resistor)
R level 1 (Resistor)R level 1 (Resistor)R level 1 (Resistor)R level 1 (Resistor)R level 1 (Resistor)R level 1 (Resistor)R level 1 (Resistor)R level 1 (Resistor)
R level 1 (Resistor)R level 1 (Resistor)R level 1 (Resistor)R level 1 (Resistor)R level 1 (Resistor)R level 1 (Resistor)R level 1 (Resistor)R level 1 (Resistor)
[...]
              0              0              0              0              0              0              0              0
              0              0              0              0              0              0              0              0
              0              0              0              0              0              0              0              0
              0              0              0              0              0              0              0              0
              0              0              0              0              0              0              0              0
              0              0              0              0              0              0              0              0
              0              0              0              0              0              0              0              0
              0              0              0              0              0              0              0              0
              0              0              0              0              0              0              0              0
              0              0              0              0              0              0              0              0
              0              0              0              0              0              0              0              0
              0              0              0              0              0              0              0              0
              0              0              0              0              0              0              0              0
              0              0              0              0              0              0              0              0
              0              0              0              0              0              0              0              0
              0              0              0              0              0              0              0              0
              0              0              0              0              0              0              0              0
              0              0              0              0              0              0              0              0
              0              0              0              0              0              0              0              0
              0              0              0              0              0              0              0              0
              0              0              0              0              0              0              0              0
              0              0              0              0              0              0              0              0
              0              0              0              0              0              0              0              0
              0              0              0              0              0              0              0              0
              0              0              0              0              0              0              0              0
              0              0              0              0              0              0              0              0
              0              0              0              0              0              0              0              0
              0              0              0              0              0              0              0              0
              0              0              0              0              0              0              0              0
              0              0              0              0              0              0              0              0
              0              0              0              0              0              0              0              0
              0              0              0              0              0              0              0              0
              0              0              0              0              0              0              0              0
              0              0              0              0              0              0              0              0
              0              0              0              0              0              0              0              0
              0              0              0              0              0              0              0              0
              0              0              0              0              0              0              0              0
              0              0              0              0              0              0              0              0
              0              0              0              0              0              0              0              0
              0              0              0              0              0              0              0              0
              0              0              0              0              0              0              0              0
              0              0              0              0              0              0              0              0
              0              0              0              0              0              0              0              0
              0              0              0              0              0              0              0              0
              0              0              0              0              0              0              0              0
              0              0              0              0              0              0              0              0
              0              0              0              0              0              0              0              0
              0              0              0              0              0              0              0              0
              0              0              0              0              0              0              0              0
              0              0              0              0              0              0              0              0
              0              0              0              0              0              0              0              0
              0              0              0              0              0              0              0              0
              0              0              0              0              0              0              0              0
              0              0              0              0              0              0              0              0
              0              0              0              0              0              0              0              0
              0              0              0              0              0              0              0              0
              0              0              0              0              0              0              0              0
              0              0              0              0              0              0              0              0
              0              0              0              0              0              0              0              0
              0              0              0              0              0              0              0              0
              0              0              0              0              0              0              0              0
              0              0              0              0              0              0              0              0
              0              0              0              0              0              0              0              0
              0              0              0              0              0              0              0              0
              0              0              0              0              0              0              0              0
              0              0              0              0              0              0              0              0
              0              0              0              0              0              0              0              0
              0              0              0              0              0              0              0              0
              0              0              0              0              0              0              0              0
              0              0              0              0              0              0              0              0
              0              0              0              0              0              0              0              0
              0              0              0              0              0              0              0              0
              0              0              0              0              0              0              0              0
              0              0              0              0              0              0              0              0
              0              0              0              0              0              0              0              0
              0              0              0              0              0              0              0              0
              0              0              0              0              0              0              0              0
              0              0              0              0              0              0              0              0
              0              0              0              0              0              0              0              0
              0              0              0              0              0              0              0              0
              0              0              0              0              0              0              0              0
              0              0              0              0              0              0              0              0
              0              0              0              0              0              0              0              0
              0              0              0              0              0              0              0              0
              0              0              0              0              0              0              0              0
              0              0              0              0              0              0              0              0
              0              0              0              0              0              0              0              0
              0              0              0              0              0              0              0              0
              0              0              0              0              0              0              0              0
              0              0              0              0              0              0              0              0
              0              0              0              0              0              0              0              0
              0              0              0              0              0              0              0              0
              0              0              0              0              0              0              0              0
              0              0              0              0              0              0              0              0
              0              0              0              0              0              0              0              0
              0              0              0              0              0              0              0              0
              0              0              0              0              0              0              0              0
              0              0              0              0              0              0              0              0
              0              0              0              0              0              0              0              0
              0              0              0              0              0              0              0              0
              0              0              0              0              0              0              0              0
              0              0              0              0              0              0              0              0
              0              0              0              0              0              0              0              0
              0              0              0              0              0              0              0              0
              0              0              0              0              0              0              0              0
              0              0              0              0              0              0              0              0
              0              0              0              0              0              0              0              0
              0              0              0              0              0              0              0              0
              0              0              0              0              0              0              0              0
              0              0              0              0              0              0              0              0
              0              0              0              0              0              0              0              0
              0              0              0              0              0              0              0              0
              0              0              0              0              0              0              0              0
              0              0              0              0              0              0              0              0
              0              0              0              0              0              0              0              0
              0              0              0              0              0              0              0              0
              0              0              0              0              0              0              0              0
              0              0

------------------------------------------------------------

***** Solution Summary *****
	Number Successful Steps Taken:		1
	Number Failed Steps Attempted:		0
	Number Jacobians Evaluated:		3
	Number Iteration Matrix Factorizations:	0
	Number Linear Solves:			3
	Number Failed Linear Solves:		0
	Number Residual Evaluations:		4
	Number Nonlinear Convergence Failures:	0
	Total Residual Load Time:		0.000916004 seconds
	Total Jacobian Load Time:		0.0015111 seconds
	Total Linear Solution Time:		0.0350301 seconds


***** Total Simulation Solvers Run Time: 0.0925081 seconds
***** Total Elapsed Run Time:            0.269188 seconds
*****
***** End of Xyce(TM) Simulation
*****

Timing summary of processor 0
                 Stats                   Count       CPU Time              Wall Time
---------------------------------------- ----- --------------------- ---------------------
Xyce                                         1        0.274 (100.0%)        0.424 (100.0%)
  Analysis                                   1        0.078 (28.43%)        0.092 (21.80%)
    DC Sweep                                 1        0.056 (20.25%)        0.070 (16.51%)
      Solve                                  1        0.035 (12.69%)        0.042 ( 9.82%)
        Residual                             4        0.001 ( 0.32%)        0.001 ( 0.22%)
        Jacobian                             3        0.001 ( 0.53%)        0.002 ( 0.36%)
        Linear Solve                         3        0.028 (10.33%)        0.035 ( 8.26%)
      Successful Step                        1        0.020 ( 7.35%)        0.027 ( 6.45%)
  Netlist Import                             1        0.105 (38.37%)        0.113 (26.65%)
    Parse Context                            1        0.018 ( 6.38%)        0.020 ( 4.63%)
    Distribute Devices                       1        0.062 (22.60%)        0.065 (15.26%)
    Verify Devices                           1        0.000 (<0.01%)        0.000 (<0.01%)
    Instantiate                              1        0.011 ( 4.07%)        0.011 ( 2.63%)
  Late Initialization                        1        0.062 (22.70%)        0.062 (14.68%)
    Global Indices                           1        0.020 ( 7.36%)        0.020 ( 4.76%)
  Setup Matrix Structure                     1        0.009 ( 3.18%)        0.009 ( 2.06%)


Timing summary of 4 processors
                                                     CPU Time              CPU Time              CPU Time              Wall Time             Wall Time             Wall Time
                 Stats                   Count   Sum (% of System)     Min (% of System)     Max (% of System)     Sum (% of System)     Min (% of System)     Max (% of System)
---------------------------------------- ----- --------------------- --------------------- --------------------- --------------------- --------------------- ---------------------
Xyce                                         4        1.160 (100.0%)        0.274 (23.66%)        0.296 (25.54%)        1.694 (100.0%)        0.423 (24.98%)        0.424 (25.05%)
  Analysis                                   4        0.350 (30.18%)        0.078 ( 6.72%)        0.091 ( 7.87%)        0.367 (21.64%)        0.091 ( 5.39%)        0.092 ( 5.46%)
    DC Sweep                                 4        0.261 (22.47%)        0.056 ( 4.79%)        0.069 ( 5.95%)        0.277 (16.36%)        0.069 ( 4.08%)        0.070 ( 4.13%)
      Solve                                  4        0.158 (13.59%)        0.035 ( 3.00%)        0.042 ( 3.58%)        0.167 ( 9.83%)        0.042 ( 2.46%)        0.042 ( 2.46%)
        Residual                            16        0.004 ( 0.31%)        0.001 ( 0.08%)        0.001 ( 0.08%)        0.004 ( 0.22%)        0.001 ( 0.05%)        0.001 ( 0.06%)
        Jacobian                            12        0.005 ( 0.40%)        0.001 ( 0.07%)        0.002 ( 0.14%)        0.006 ( 0.37%)        0.002 ( 0.09%)        0.002 ( 0.09%)
        Linear Solve                        12        0.133 (11.49%)        0.028 ( 2.44%)        0.035 ( 3.02%)        0.140 ( 8.26%)        0.035 ( 2.06%)        0.035 ( 2.07%)
      Successful Step                        4        0.101 ( 8.67%)        0.020 ( 1.74%)        0.027 ( 2.31%)        0.108 ( 6.36%)        0.027 ( 1.58%)        0.027 ( 1.62%)
  Netlist Import                             4        0.432 (37.23%)        0.105 ( 9.07%)        0.112 ( 9.64%)        0.452 (26.69%)        0.113 ( 6.67%)        0.113 ( 6.67%)
    Parse Context                            4        0.076 ( 6.55%)        0.018 ( 1.51%)        0.019 ( 1.68%)        0.078 ( 4.63%)        0.020 ( 1.16%)        0.020 ( 1.16%)
    Distribute Devices                       4        0.254 (21.88%)        0.062 ( 5.34%)        0.065 ( 5.57%)        0.258 (15.21%)        0.064 ( 3.79%)        0.065 ( 3.82%)
    Verify Devices                           4        0.000 (<0.01%)        0.000 (<0.01%)        0.000 (<0.01%)        0.000 (<0.01%)        0.000 (<0.01%)        0.000 (<0.01%)
    Instantiate                              4        0.049 ( 4.26%)        0.011 ( 0.96%)        0.013 ( 1.13%)        0.050 ( 2.98%)        0.011 ( 0.66%)        0.014 ( 0.82%)
  Late Initialization                        4        0.247 (21.33%)        0.061 ( 5.29%)        0.062 ( 5.38%)        0.250 (14.74%)        0.062 ( 3.68%)        0.063 ( 3.69%)
    Global Indices                           4        0.081 ( 6.99%)        0.020 ( 1.74%)        0.020 ( 1.76%)        0.081 ( 4.79%)        0.020 ( 1.19%)        0.020 ( 1.21%)
  Setup Matrix Structure                     4        0.034 ( 2.93%)        0.008 ( 0.67%)        0.009 ( 0.75%)        0.035 ( 2.06%)        0.009 ( 0.52%)        0.009 ( 0.52%)

