
*****
***** Welcome to the Xyce(TM) Parallel Electronic Simulator
*****
***** This is version Xyce Release 6.12-opensource
***** Date: Tue Aug 11 20:43:41 EDT 2020


***** Executing netlist RC_steady.cir

***** Reading and parsing netlist...
***** Setting up topology...

***** Device Count Summary ...
       I level 1 (Independent Current Source)  6400
       R level 1 (Resistor)                   38080
       V level 1 (Independent Voltage Source)     1
       --------------------------------------------
       Total Devices                          44481
***** Setting up matrix structure...
***** Number of Unknowns = 12802
***** Initializing...

------------------------------------------------------------
Operating point information:
Number of Resistor models: 1
          name R level 1 (Resistor)
          type                
         level               1
           TNOM             27
           DEFW          1e-05
         NARROW              0
              R              1
            TC1              0
            TCE              0
            TC2              0

            RSH              0

Number of Resistor instances: 11121
          name     R_1_33_10_3    R_1_33_11_1    R_1_33_11_2    R_1_33_11_3    R_1_33_12_1    R_1_33_12_2    R_1_33_12_3
    R_1_33_13_1    R_1_33_13_2    R_1_33_13_3    R_1_33_14_1    R_1_33_14_2    R_1_33_14_3    R_1_33_15_1    R_1_33_15_2
    R_1_33_15_3    R_1_33_16_1    R_1_33_16_2    R_1_33_16_3    R_1_33_17_1    R_1_33_17_2    R_1_33_17_3    R_1_33_18_1
    R_1_33_18_2    R_1_33_18_3    R_1_33_19_1    R_1_33_19_2    R_1_33_19_3    R_1_33_20_1    R_1_33_20_2    R_1_33_20_3
    R_1_33_21_1    R_1_33_21_2    R_1_33_21_3    R_1_33_22_1    R_1_33_22_2    R_1_33_22_3    R_1_33_23_1    R_1_33_23_2
    R_1_33_23_3    R_1_33_24_1    R_1_33_24_2    R_1_33_24_3    R_1_33_25_1    R_1_33_25_2    R_1_33_25_3    R_1_33_26_1
    R_1_33_26_2    R_1_33_26_3    R_1_33_27_1    R_1_33_27_2    R_1_33_27_3    R_1_33_28_1    R_1_33_28_2    R_1_33_28_3
    R_1_33_29_1    R_1_33_29_2    R_1_33_29_3    R_1_33_30_1    R_1_33_30_2    R_1_33_30_3    R_1_33_31_1    R_1_33_31_2
    R_1_33_31_3    R_1_33_32_1    R_1_33_32_2    R_1_33_32_3    R_1_33_33_1    R_1_33_33_2    R_1_33_33_3    R_1_33_34_1
    R_1_33_34_2    R_1_33_34_3    R_1_33_35_1    R_1_33_35_2    R_1_33_35_3    R_1_33_36_1    R_1_33_36_2    R_1_33_36_3
    R_1_33_37_1    R_1_33_37_2    R_1_33_37_3    R_1_33_38_1    R_1_33_38_2    R_1_33_38_3    R_1_33_39_1    R_1_33_39_2
    R_1_33_39_3    R_1_33_40_1    R_1_33_40_2    R_1_33_40_3    R_1_33_41_1    R_1_33_41_2    R_1_33_41_3    R_1_33_42_1
    R_1_33_42_2    R_1_33_42_3    R_1_33_43_1    R_1_33_43_2    R_1_33_43_3    R_1_33_44_1    R_1_33_44_2    R_1_33_44_3
    R_1_33_45_1    R_1_33_45_2    R_1_33_45_3    R_1_33_46_1    R_1_33_46_2    R_1_33_46_3    R_1_33_47_1    R_1_33_47_2
    R_1_33_47_3    R_1_33_48_1    R_1_33_48_2    R_1_33_48_3    R_1_33_49_1    R_1_33_49_2    R_1_33_49_3    R_1_33_50_1
    R_1_33_50_2    R_1_33_50_3    R_1_33_51_1    R_1_33_51_2    R_1_33_51_3    R_1_33_52_1    R_1_33_52_2    R_1_33_52_3
    R_1_33_53_1    R_1_33_53_2    R_1_33_53_3    R_1_33_54_1    R_1_33_54_2    R_1_33_54_3    R_1_33_55_1    R_1_33_55_2
    R_1_33_55_3    R_1_33_56_1    R_1_33_56_2    R_1_33_56_3    R_1_33_57_1    R_1_33_57_2    R_1_33_57_3    R_1_33_58_1
    R_1_33_58_2    R_1_33_58_3    R_1_33_59_1    R_1_33_59_2    R_1_33_59_3    R_1_33_60_1    R_1_33_60_2    R_1_33_60_3
    R_1_33_61_1    R_1_33_61_2    R_1_33_61_3    R_1_33_62_1    R_1_33_62_2    R_1_33_62_3    R_1_33_63_1    R_1_33_63_2
    R_1_33_63_3    R_1_33_64_1    R_1_33_64_2    R_1_33_64_3    R_1_33_65_1    R_1_33_65_2    R_1_33_65_3    R_1_33_66_1
    R_1_33_66_2    R_1_33_66_3    R_1_33_67_1    R_1_33_67_2    R_1_33_67_3    R_1_33_68_1    R_1_33_68_2    R_1_33_68_3
    R_1_33_69_1    R_1_33_69_2    R_1_33_69_3    R_1_33_70_1    R_1_33_70_2    R_1_33_70_3    R_1_33_71_1    R_1_33_71_2
    R_1_33_71_3    R_1_33_72_1    R_1_33_72_2    R_1_33_72_3    R_1_33_73_1    R_1_33_73_2    R_1_33_73_3    R_1_33_74_1
    R_1_33_74_2    R_1_33_74_3    R_1_33_75_1    R_1_33_75_2    R_1_33_75_3    R_1_33_76_1    R_1_33_76_2    R_1_33_76_3
    R_1_33_77_1    R_1_33_77_2    R_1_33_77_3    R_1_33_78_1    R_1_33_78_2    R_1_33_78_3    R_1_33_79_2    R_1_33_79_3
     R_1_34_0_1     R_1_34_0_2     R_1_34_0_3    R_1_34_10_1    R_1_34_10_2    R_1_34_10_3    R_1_34_11_1    R_1_34_11_2
    R_1_34_11_3    R_1_34_12_1    R_1_34_12_2    R_1_34_12_3    R_1_34_13_1    R_1_34_13_2    R_1_34_13_3    R_1_34_14_1
    R_1_34_14_2    R_1_34_14_3    R_1_34_15_1    R_1_34_15_2    R_1_34_15_3    R_1_34_16_1    R_1_34_16_2    R_1_34_16_3
    R_1_34_17_1    R_1_34_17_2    R_1_34_17_3    R_1_34_18_1    R_1_34_18_2    R_1_34_18_3    R_1_34_19_1    R_1_34_19_2
    R_1_34_19_3     R_1_34_1_1     R_1_34_1_2     R_1_34_1_3    R_1_34_20_1    R_1_34_20_2    R_1_34_20_3    R_1_34_21_1
    R_1_34_21_2    R_1_34_21_3    R_1_34_22_1    R_1_34_22_2    R_1_34_22_3    R_1_34_23_1    R_1_34_23_2    R_1_34_23_3
    R_1_34_24_1    R_1_34_24_2    R_1_34_24_3    R_1_34_25_1    R_1_34_25_2    R_1_34_25_3    R_1_34_26_1    R_1_34_26_2
    R_1_34_26_3    R_1_34_27_1    R_1_34_27_2    R_1_34_27_3    R_1_34_28_1    R_1_34_28_2    R_1_34_28_3    R_1_34_29_1
    R_1_34_29_2    R_1_34_29_3     R_1_34_2_1     R_1_34_2_2     R_1_34_2_3    R_1_34_30_1    R_1_34_30_2    R_1_34_30_3
    R_1_34_31_1    R_1_34_31_2    R_1_34_31_3    R_1_34_32_1    R_1_34_32_2    R_1_34_32_3    R_1_34_33_1    R_1_34_33_2
    R_1_34_33_3    R_1_34_34_1    R_1_34_34_2    R_1_34_34_3    R_1_34_35_1    R_1_34_35_2    R_1_34_35_3    R_1_34_36_1
    R_1_34_36_2    R_1_34_36_3    R_1_34_37_1    R_1_34_37_2    R_1_34_37_3    R_1_34_38_1    R_1_34_38_2    R_1_34_38_3
    R_1_34_39_1    R_1_34_39_2    R_1_34_39_3     R_1_34_3_1     R_1_34_3_2     R_1_34_3_3    R_1_34_40_1    R_1_34_40_2
    R_1_34_40_3    R_1_34_41_1    R_1_34_41_2    R_1_34_41_3    R_1_34_42_1    R_1_34_42_2    R_1_34_42_3    R_1_34_43_1
    R_1_34_43_2    R_1_34_43_3    R_1_34_44_1    R_1_34_44_2    R_1_34_44_3    R_1_34_45_1    R_1_34_45_2    R_1_34_45_3
    R_1_34_46_1    R_1_34_46_2    R_1_34_46_3    R_1_34_47_1    R_1_34_47_2    R_1_34_47_3    R_1_34_48_1    R_1_34_48_2
    R_1_34_48_3    R_1_34_49_1    R_1_34_49_2    R_1_34_49_3     R_1_34_4_1     R_1_34_4_2     R_1_34_4_3    R_1_34_50_1
    R_1_34_50_2    R_1_34_50_3    R_1_34_51_1    R_1_34_51_2    R_1_34_51_3    R_1_34_52_1    R_1_34_52_2    R_1_34_52_3
    R_1_34_53_1    R_1_34_53_2    R_1_34_53_3    R_1_34_54_1    R_1_34_54_2    R_1_34_54_3    R_1_34_55_1    R_1_34_55_2
    R_1_34_55_3    R_1_34_56_1    R_1_34_56_2    R_1_34_56_3    R_1_34_57_1    R_1_34_57_2    R_1_34_57_3    R_1_34_58_1
    R_1_34_58_2    R_1_34_58_3    R_1_34_59_1    R_1_34_59_2    R_1_34_59_3     R_1_34_5_1     R_1_34_5_2     R_1_34_5_3
    R_1_34_60_1    R_1_34_60_2    R_1_34_60_3    R_1_34_61_1    R_1_34_61_2    R_1_34_61_3    R_1_34_62_1    R_1_34_62_2
    R_1_34_62_3    R_1_34_63_1    R_1_34_63_2    R_1_34_63_3    R_1_34_64_1    R_1_34_64_2    R_1_34_64_3    R_1_34_65_1
    R_1_34_65_2    R_1_34_65_3    R_1_34_66_1    R_1_34_66_2    R_1_34_66_3    R_1_34_67_1    R_1_34_67_2    R_1_34_67_3
    R_1_34_68_1    R_1_34_68_2    R_1_34_68_3    R_1_34_69_1    R_1_34_69_2    R_1_34_69_3     R_1_34_6_1     R_1_34_6_2
     R_1_34_6_3    R_1_34_70_1    R_1_34_70_2    R_1_34_70_3    R_1_34_71_1    R_1_34_71_2    R_1_34_71_3    R_1_34_72_1
    R_1_34_72_2    R_1_34_72_3    R_1_34_73_1    R_1_34_73_2    R_1_34_73_3    R_1_34_74_1    R_1_34_74_2    R_1_34_74_3
    R_1_34_75_1    R_1_34_75_2    R_1_34_75_3    R_1_34_76_1    R_1_34_76_2    R_1_34_76_3    R_1_34_77_1    R_1_34_77_2
    R_1_34_77_3    R_1_34_78_1    R_1_34_78_2    R_1_34_78_3    R_1_34_79_2    R_1_34_79_3     R_1_34_7_1     R_1_34_7_2
     R_1_34_7_3     R_1_34_8_1     R_1_34_8_2     R_1_34_8_3     R_1_34_9_1     R_1_34_9_2     R_1_34_9_3     R_1_35_0_1
     R_1_35_0_2     R_1_35_0_3    R_1_35_10_1    R_1_35_10_2    R_1_35_10_3    R_1_35_11_1    R_1_35_11_2    R_1_35_11_3
    R_1_35_12_1    R_1_35_12_2    R_1_35_12_3    R_1_35_13_1    R_1_35_13_2    R_1_35_13_3    R_1_35_14_1    R_1_35_14_2
    R_1_35_14_3    R_1_35_15_1    R_1_35_15_2    R_1_35_15_3    R_1_35_16_1    R_1_35_16_2    R_1_35_16_3    R_1_35_17_1
    R_1_35_17_2    R_1_35_17_3    R_1_35_18_1    R_1_35_18_2    R_1_35_18_3    R_1_35_19_1    R_1_35_19_2    R_1_35_19_3
     R_1_35_1_1     R_1_35_1_2     R_1_35_1_3    R_1_35_20_1    R_1_35_20_2    R_1_35_20_3    R_1_35_21_1    R_1_35_21_2
    R_1_35_21_3    R_1_35_22_1    R_1_35_22_2    R_1_35_22_3    R_1_35_23_1    R_1_35_23_2    R_1_35_23_3    R_1_35_24_1
    R_1_35_24_2    R_1_35_24_3    R_1_35_25_1    R_1_35_25_2    R_1_35_25_3    R_1_35_26_1    R_1_35_26_2    R_1_35_26_3
    R_1_35_27_1    R_1_35_27_2    R_1_35_27_3    R_1_35_28_1    R_1_35_28_2    R_1_35_28_3    R_1_35_29_1    R_1_35_29_2
    R_1_35_29_3     R_1_35_2_1     R_1_35_2_2     R_1_35_2_3    R_1_35_30_1    R_1_35_30_2    R_1_35_30_3    R_1_35_31_1
    R_1_35_31_2    R_1_35_31_3    R_1_35_32_1    R_1_35_32_2    R_1_35_32_3    R_1_35_33_1    R_1_35_33_2    R_1_35_33_3
    R_1_35_34_1    R_1_35_34_2    R_1_35_34_3    R_1_35_35_1    R_1_35_35_2    R_1_35_35_3    R_1_35_36_1    R_1_35_36_2
    R_1_35_36_3    R_1_35_37_1    R_1_35_37_2    R_1_35_37_3    R_1_35_38_1    R_1_35_38_2    R_1_35_38_3    R_1_35_39_1
    R_1_35_39_2    R_1_35_39_3     R_1_35_3_1     R_1_35_3_2     R_1_35_3_3    R_1_35_40_1    R_1_35_40_2    R_1_35_40_3
    R_1_35_41_1    R_1_35_41_2    R_1_35_41_3    R_1_35_42_1    R_1_35_42_2    R_1_35_42_3    R_1_35_43_1    R_1_35_43_2
    R_1_35_43_3    R_1_35_44_1    R_1_35_44_2    R_1_35_44_3    R_1_35_45_1    R_1_35_45_2    R_1_35_45_3    R_1_35_46_1
    R_1_35_46_2    R_1_35_46_3    R_1_35_47_1    R_1_35_47_2    R_1_35_47_3    R_1_35_48_1    R_1_35_48_2    R_1_35_48_3
    R_1_35_49_1    R_1_35_49_2    R_1_35_49_3     R_1_35_4_1     R_1_35_4_2     R_1_35_4_3    R_1_35_50_1    R_1_35_50_2
    R_1_35_50_3    R_1_35_51_1    R_1_35_51_2    R_1_35_51_3    R_1_35_52_1    R_1_35_52_2    R_1_35_52_3    R_1_35_53_1
    R_1_35_53_2    R_1_35_53_3    R_1_35_54_1    R_1_35_54_2    R_1_35_54_3    R_1_35_55_1    R_1_35_55_2    R_1_35_55_3
    R_1_35_56_1    R_1_35_56_2    R_1_35_56_3    R_1_35_57_1    R_1_35_57_2    R_1_35_57_3    R_1_35_58_1    R_1_35_58_2
    R_1_35_58_3    R_1_35_59_1    R_1_35_59_2    R_1_35_59_3     R_1_35_5_1     R_1_35_5_2     R_1_35_5_3    R_1_35_60_1
    R_1_35_60_2    R_1_35_60_3    R_1_35_61_1    R_1_35_61_2    R_1_35_61_3    R_1_35_62_1    R_1_35_62_2    R_1_35_62_3
    R_1_35_63_1    R_1_35_63_2    R_1_35_63_3    R_1_35_64_1    R_1_35_64_2    R_1_35_64_3    R_1_35_65_1    R_1_35_65_2
    R_1_35_65_3    R_1_35_66_1    R_1_35_66_2    R_1_35_66_3    R_1_35_67_1    R_1_35_67_2    R_1_35_67_3    R_1_35_68_1
    R_1_35_68_2    R_1_35_68_3    R_1_35_69_1    R_1_35_69_2    R_1_35_69_3     R_1_35_6_1     R_1_35_6_2     R_1_35_6_3
    R_1_35_70_1    R_1_35_70_2    R_1_35_70_3    R_1_35_71_1    R_1_35_71_2    R_1_35_71_3    R_1_35_72_1    R_1_35_72_2
    R_1_35_72_3    R_1_35_73_1    R_1_35_73_2    R_1_35_73_3    R_1_35_74_1    R_1_35_74_2    R_1_35_74_3    R_1_35_75_1
    R_1_35_75_2    R_1_35_75_3    R_1_35_76_1    R_1_35_76_2    R_1_35_76_3    R_1_35_77_1    R_1_35_77_2    R_1_35_77_3
    R_1_35_78_1    R_1_35_78_2    R_1_35_78_3    R_1_35_79_2    R_1_35_79_3     R_1_35_7_1     R_1_35_7_2     R_1_35_7_3
     R_1_35_8_1     R_1_35_8_2     R_1_35_8_3     R_1_35_9_1     R_1_35_9_2     R_1_35_9_3     R_1_36_0_1     R_1_36_0_2
     R_1_36_0_3    R_1_36_10_1    R_1_36_10_2    R_1_36_10_3    R_1_36_11_1    R_1_36_11_2    R_1_36_11_3    R_1_36_12_1
    R_1_36_12_2    R_1_36_12_3    R_1_36_13_1    R_1_36_13_2    R_1_36_13_3    R_1_36_14_1    R_1_36_14_2    R_1_36_14_3
    R_1_36_15_1    R_1_36_15_2    R_1_36_15_3    R_1_36_16_1    R_1_36_16_2    R_1_36_16_3    R_1_36_17_1    R_1_36_17_2
    R_1_36_17_3    R_1_36_18_1    R_1_36_18_2    R_1_36_18_3    R_1_36_19_1    R_1_36_19_2    R_1_36_19_3     R_1_36_1_1
     R_1_36_1_2     R_1_36_1_3    R_1_36_20_1    R_1_36_20_2    R_1_36_20_3    R_1_36_21_1    R_1_36_21_2    R_1_36_21_3
    R_1_36_22_1    R_1_36_22_2    R_1_36_22_3    R_1_36_23_1    R_1_36_23_2    R_1_36_23_3    R_1_36_24_1    R_1_36_24_2
    R_1_36_24_3    R_1_36_25_1    R_1_36_25_2    R_1_36_25_3    R_1_36_26_1    R_1_36_26_2    R_1_36_26_3    R_1_36_27_1
    R_1_36_27_2    R_1_36_27_3    R_1_36_28_1    R_1_36_28_2    R_1_36_28_3    R_1_36_29_1    R_1_36_29_2    R_1_36_29_3
     R_1_36_2_1     R_1_36_2_2     R_1_36_2_3    R_1_36_30_1    R_1_36_30_2    R_1_36_30_3    R_1_36_31_1    R_1_36_31_2
    R_1_36_31_3    R_1_36_32_1    R_1_36_32_2    R_1_36_32_3    R_1_36_33_1    R_1_36_33_2    R_1_36_33_3    R_1_36_34_1
    R_1_36_34_2    R_1_36_34_3    R_1_36_35_1    R_1_36_35_2    R_1_36_35_3    R_1_36_36_1    R_1_36_36_2    R_1_36_36_3
    R_1_36_37_1    R_1_36_37_2    R_1_36_37_3    R_1_36_38_1    R_1_36_38_2    R_1_36_38_3    R_1_36_39_1    R_1_36_39_2
    R_1_36_39_3     R_1_36_3_1     R_1_36_3_2     R_1_36_3_3    R_1_36_40_1    R_1_36_40_2    R_1_36_40_3    R_1_36_41_1
    R_1_36_41_2    R_1_36_41_3    R_1_36_42_1    R_1_36_42_2    R_1_36_42_3    R_1_36_43_1    R_1_36_43_2    R_1_36_43_3
    R_1_36_44_1    R_1_36_44_2    R_1_36_44_3    R_1_36_45_1    R_1_36_45_2    R_1_36_45_3    R_1_36_46_1    R_1_36_46_2
    R_1_36_46_3    R_1_36_47_1    R_1_36_47_2    R_1_36_47_3    R_1_36_48_1    R_1_36_48_2    R_1_36_48_3    R_1_36_49_1
    R_1_36_49_2    R_1_36_49_3     R_1_36_4_1     R_1_36_4_2     R_1_36_4_3    R_1_36_50_1    R_1_36_50_2    R_1_36_50_3
    R_1_36_51_1    R_1_36_51_2    R_1_36_51_3    R_1_36_52_1    R_1_36_52_2    R_1_36_52_3    R_1_36_53_1    R_1_36_53_2
    R_1_36_53_3    R_1_36_54_1    R_1_36_54_2    R_1_36_54_3    R_1_36_55_1    R_1_36_55_2    R_1_36_55_3    R_1_36_56_1
    R_1_36_56_2    R_1_36_56_3    R_1_36_57_1    R_1_36_57_2    R_1_36_57_3    R_1_36_58_1    R_1_36_58_2    R_1_36_58_3
    R_1_36_59_1    R_1_36_59_2    R_1_36_59_3     R_1_36_5_1     R_1_36_5_2     R_1_36_5_3    R_1_36_60_1    R_1_36_60_2
    R_1_36_60_3    R_1_36_61_1    R_1_36_61_2    R_1_36_61_3    R_1_36_62_1    R_1_36_62_2    R_1_36_62_3    R_1_36_63_1
    R_1_36_63_2    R_1_36_63_3    R_1_36_64_1    R_1_36_64_2    R_1_36_64_3    R_1_36_65_1    R_1_36_65_2    R_1_36_65_3
    R_1_36_66_1    R_1_36_66_2    R_1_36_66_3    R_1_36_67_1    R_1_36_67_2    R_1_36_67_3    R_1_36_68_1    R_1_36_68_2
    R_1_36_68_3    R_1_36_69_1    R_1_36_69_2    R_1_36_69_3     R_1_36_6_1     R_1_36_6_2     R_1_36_6_3    R_1_36_70_1
    R_1_36_70_2    R_1_36_70_3    R_1_36_71_1    R_1_36_71_2    R_1_36_71_3    R_1_36_72_1    R_1_36_72_2    R_1_36_72_3
    R_1_36_73_1    R_1_36_73_2    R_1_36_73_3    R_1_36_74_1    R_1_36_74_2    R_1_36_74_3    R_1_36_75_1    R_1_36_75_2
    R_1_36_75_3    R_1_36_76_1    R_1_36_76_2    R_1_36_76_3    R_1_36_77_1    R_1_36_77_2    R_1_36_77_3    R_1_36_78_1
    R_1_36_78_2    R_1_36_78_3    R_1_36_79_2    R_1_36_79_3     R_1_36_7_1     R_1_36_7_2     R_1_36_7_3     R_1_36_8_1
     R_1_36_8_2     R_1_36_8_3     R_1_36_9_1     R_1_36_9_2     R_1_36_9_3     R_1_37_0_1     R_1_37_0_2     R_1_37_0_3
    R_1_37_10_1    R_1_37_10_2    R_1_37_10_3    R_1_37_11_1    R_1_37_11_2    R_1_37_11_3    R_1_37_12_1    R_1_37_12_2
    R_1_37_12_3    R_1_37_13_1    R_1_37_13_2    R_1_37_13_3    R_1_37_14_1    R_1_37_14_2    R_1_37_14_3    R_1_37_15_1
    R_1_37_15_2    R_1_37_15_3    R_1_37_16_1    R_1_37_16_2    R_1_37_16_3    R_1_37_17_1    R_1_37_17_2    R_1_37_17_3
    R_1_37_18_1    R_1_37_18_2    R_1_37_18_3    R_1_37_19_1    R_1_37_19_2    R_1_37_19_3     R_1_37_1_1     R_1_37_1_2
     R_1_37_1_3    R_1_37_20_1    R_1_37_20_2    R_1_37_20_3    R_1_37_21_1    R_1_37_21_2    R_1_37_21_3    R_1_37_22_1
    R_1_37_22_2    R_1_37_22_3    R_1_37_23_1    R_1_37_23_2    R_1_37_23_3    R_1_37_24_1    R_1_37_24_2    R_1_37_24_3
    R_1_37_25_1    R_1_37_25_2    R_1_37_25_3    R_1_37_26_1    R_1_37_26_2    R_1_37_26_3    R_1_37_27_1    R_1_37_27_2
    R_1_37_27_3    R_1_37_28_1    R_1_37_28_2    R_1_37_28_3    R_1_37_29_1    R_1_37_29_2    R_1_37_29_3     R_1_37_2_1
     R_1_37_2_2     R_1_37_2_3    R_1_37_30_1    R_1_37_30_2    R_1_37_30_3    R_1_37_31_1    R_1_37_31_2    R_1_37_31_3
    R_1_37_32_1    R_1_37_32_2    R_1_37_32_3    R_1_37_33_1    R_1_37_33_2    R_1_37_33_3    R_1_37_34_1    R_1_37_34_2
    R_1_37_34_3    R_1_37_35_1    R_1_37_35_2    R_1_37_35_3    R_1_37_36_1    R_1_37_36_2    R_1_37_36_3    R_1_37_37_1
    R_1_37_37_2    R_1_37_37_3    R_1_37_38_1    R_1_37_38_2    R_1_37_38_3    R_1_37_39_1    R_1_37_39_2    R_1_37_39_3
     R_1_37_3_1     R_1_37_3_2     R_1_37_3_3    R_1_37_40_1    R_1_37_40_2    R_1_37_40_3    R_1_37_41_1    R_1_37_41_2
    R_1_37_41_3    R_1_37_42_1    R_1_37_42_2    R_1_37_42_3    R_1_37_43_1    R_1_37_43_2    R_1_37_43_3    R_1_37_44_1
    R_1_37_44_2    R_1_37_44_3    R_1_37_45_1    R_1_37_45_2    R_1_37_45_3    R_1_37_46_1    R_1_37_46_2    R_1_37_46_3
    R_1_37_47_1    R_1_37_47_2    R_1_37_47_3    R_1_37_48_1    R_1_37_48_2    R_1_37_48_3    R_1_37_49_1    R_1_37_49_2
    R_1_37_49_3     R_1_37_4_1     R_1_37_4_2     R_1_37_4_3    R_1_37_50_1    R_1_37_50_2    R_1_37_50_3    R_1_37_51_1
    R_1_37_51_2    R_1_37_51_3    R_1_37_52_1    R_1_37_52_2    R_1_37_52_3    R_1_37_53_1    R_1_37_53_2    R_1_37_53_3
    R_1_37_54_1    R_1_37_54_2    R_1_37_54_3    R_1_37_55_1    R_1_37_55_2    R_1_37_55_3    R_1_37_56_1    R_1_37_56_2
    R_1_37_56_3    R_1_37_57_1    R_1_37_57_2    R_1_37_57_3    R_1_37_58_1    R_1_37_58_2    R_1_37_58_3    R_1_37_59_1
    R_1_37_59_2    R_1_37_59_3     R_1_37_5_1     R_1_37_5_2     R_1_37_5_3    R_1_37_60_1    R_1_37_60_2    R_1_37_60_3
    R_1_37_61_1    R_1_37_61_2    R_1_37_61_3    R_1_37_62_1    R_1_37_62_2    R_1_37_62_3    R_1_37_63_1    R_1_37_63_2
    R_1_37_63_3    R_1_37_64_1    R_1_37_64_2    R_1_37_64_3    R_1_37_65_1    R_1_37_65_2    R_1_37_65_3    R_1_37_66_1
    R_1_37_66_2    R_1_37_66_3    R_1_37_67_1    R_1_37_67_2    R_1_37_67_3    R_1_37_68_1    R_1_37_68_2    R_1_37_68_3
    R_1_37_69_1    R_1_37_69_2    R_1_37_69_3     R_1_37_6_1     R_1_37_6_2     R_1_37_6_3    R_1_37_70_1    R_1_37_70_2
    R_1_37_70_3    R_1_37_71_1    R_1_37_71_2    R_1_37_71_3    R_1_37_72_1    R_1_37_72_2    R_1_37_72_3    R_1_37_73_1
    R_1_37_73_2    R_1_37_73_3    R_1_37_74_1    R_1_37_74_2    R_1_37_74_3    R_1_37_75_1    R_1_37_75_2    R_1_37_75_3
    R_1_37_76_1    R_1_37_76_2    R_1_37_76_3    R_1_37_77_1    R_1_37_77_2    R_1_37_77_3    R_1_37_78_1    R_1_37_78_2
    R_1_37_78_3    R_1_37_79_2    R_1_37_79_3     R_1_37_7_1     R_1_37_7_2     R_1_37_7_3     R_1_37_8_1     R_1_37_8_2
     R_1_37_8_3     R_1_37_9_1     R_1_37_9_2     R_1_37_9_3     R_1_38_0_1     R_1_38_0_2     R_1_38_0_3    R_1_38_10_1
    R_1_38_10_2    R_1_38_10_3    R_1_38_11_1    R_1_38_11_2    R_1_38_11_3    R_1_38_12_1    R_1_38_12_2    R_1_38_12_3
    R_1_38_13_1    R_1_38_13_2    R_1_38_13_3    R_1_38_14_1    R_1_38_14_2    R_1_38_14_3    R_1_38_15_1    R_1_38_15_2
    R_1_38_15_3    R_1_38_16_1    R_1_38_16_2    R_1_38_16_3    R_1_38_17_1    R_1_38_17_2    R_1_38_17_3    R_1_38_18_1
    R_1_38_18_2    R_1_38_18_3    R_1_38_19_1    R_1_38_19_2    R_1_38_19_3     R_1_38_1_1     R_1_38_1_2     R_1_38_1_3
    R_1_38_20_1    R_1_38_20_2    R_1_38_20_3    R_1_38_21_1    R_1_38_21_2    R_1_38_21_3    R_1_38_22_1    R_1_38_22_2
    R_1_38_22_3    R_1_38_23_1    R_1_38_23_2    R_1_38_23_3    R_1_38_24_1    R_1_38_24_2    R_1_38_24_3    R_1_38_25_1
    R_1_38_25_2    R_1_38_25_3    R_1_38_26_1    R_1_38_26_2    R_1_38_26_3    R_1_38_27_1    R_1_38_27_2    R_1_38_27_3
    R_1_38_28_1    R_1_38_28_2    R_1_38_28_3    R_1_38_29_1    R_1_38_29_2    R_1_38_29_3     R_1_38_2_1     R_1_38_2_2
     R_1_38_2_3    R_1_38_30_1    R_1_38_30_2    R_1_38_30_3    R_1_38_31_1    R_1_38_31_2    R_1_38_31_3    R_1_38_32_1
    R_1_38_32_2    R_1_38_32_3    R_1_38_33_1    R_1_38_33_2    R_1_38_33_3    R_1_38_34_1    R_1_38_34_2    R_1_38_34_3
    R_1_38_35_1    R_1_38_35_2    R_1_38_35_3    R_1_38_36_1    R_1_38_36_2    R_1_38_36_3    R_1_38_37_1    R_1_38_37_2
    R_1_38_37_3    R_1_38_38_1    R_1_38_38_2    R_1_38_38_3    R_1_38_39_1    R_1_38_39_2    R_1_38_39_3     R_1_38_3_1
     R_1_38_3_2     R_1_38_3_3    R_1_38_40_1    R_1_38_40_2    R_1_38_40_3    R_1_38_41_1    R_1_38_41_2    R_1_38_41_3
    R_1_38_42_1    R_1_38_42_2    R_1_38_42_3    R_1_38_43_1    R_1_38_43_2    R_1_38_43_3    R_1_38_44_1    R_1_38_44_2
    R_1_38_44_3    R_1_38_45_1    R_1_38_45_2    R_1_38_45_3    R_1_38_46_1    R_1_38_46_2    R_1_38_46_3    R_1_38_47_1
    R_1_38_47_2    R_1_38_47_3    R_1_38_48_1    R_1_38_48_2    R_1_38_48_3    R_1_38_49_1    R_1_38_49_2    R_1_38_49_3
     R_1_38_4_1     R_1_38_4_2     R_1_38_4_3    R_1_38_50_1    R_1_38_50_2    R_1_38_50_3    R_1_38_51_1    R_1_38_51_2
    R_1_38_51_3    R_1_38_52_1    R_1_38_52_2    R_1_38_52_3    R_1_38_53_1    R_1_38_53_2    R_1_38_53_3    R_1_38_54_1
    R_1_38_54_2    R_1_38_54_3    R_1_38_55_1    R_1_38_55_2    R_1_38_55_3    R_1_38_56_1    R_1_38_56_2    R_1_38_56_3
    R_1_38_57_1    R_1_38_57_2    R_1_38_57_3    R_1_38_58_1    R_1_38_58_2    R_1_38_58_3    R_1_38_59_1    R_1_38_59_2
    R_1_38_59_3     R_1_38_5_1     R_1_38_5_2     R_1_38_5_3    R_1_38_60_1    R_1_38_60_2    R_1_38_60_3    R_1_38_61_1
    R_1_38_61_2    R_1_38_61_3    R_1_38_62_1    R_1_38_62_2    R_1_38_62_3    R_1_38_63_1    R_1_38_63_2    R_1_38_63_3
    R_1_38_64_1    R_1_38_64_2    R_1_38_64_3    R_1_38_65_1    R_1_38_65_2    R_1_38_65_3    R_1_38_66_1    R_1_38_66_2
    R_1_38_66_3    R_1_38_67_1    R_1_38_67_2    R_1_38_67_3    R_1_38_68_1    R_1_38_68_2    R_1_38_68_3    R_1_38_69_1
    R_1_38_69_2    R_1_38_69_3     R_1_38_6_1     R_1_38_6_2     R_1_38_6_3    R_1_38_70_1    R_1_38_70_2    R_1_38_70_3
    R_1_38_71_1    R_1_38_71_2    R_1_38_71_3    R_1_38_72_1    R_1_38_72_2    R_1_38_72_3    R_1_38_73_1    R_1_38_73_2
    R_1_38_73_3    R_1_38_74_1    R_1_38_74_2    R_1_38_74_3    R_1_38_75_1    R_1_38_75_2    R_1_38_75_3    R_1_38_76_1
    R_1_38_76_2    R_1_38_76_3    R_1_38_77_1    R_1_38_77_2    R_1_38_77_3    R_1_38_78_1    R_1_38_78_2    R_1_38_78_3
    R_1_38_79_2    R_1_38_79_3     R_1_38_7_1     R_1_38_7_2     R_1_38_7_3     R_1_38_8_1     R_1_38_8_2     R_1_38_8_3
     R_1_38_9_1     R_1_38_9_2     R_1_38_9_3     R_1_39_0_1     R_1_39_0_2     R_1_39_0_3    R_1_39_10_1    R_1_39_10_2
    R_1_39_10_3    R_1_39_11_1    R_1_39_11_2    R_1_39_11_3    R_1_39_12_1    R_1_39_12_2    R_1_39_12_3    R_1_39_13_1
    R_1_39_13_2    R_1_39_13_3    R_1_39_14_1    R_1_39_14_2    R_1_39_14_3    R_1_39_15_1    R_1_39_15_2    R_1_39_15_3
    R_1_39_16_1    R_1_39_16_2    R_1_39_16_3    R_1_39_17_1    R_1_39_17_2    R_1_39_17_3    R_1_39_18_1    R_1_39_18_2
    R_1_39_18_3    R_1_39_19_1    R_1_39_19_2    R_1_39_19_3     R_1_39_1_1     R_1_39_1_2     R_1_39_1_3    R_1_39_20_1
    R_1_39_20_2    R_1_39_20_3    R_1_39_21_1    R_1_39_21_2    R_1_39_21_3    R_1_39_22_1    R_1_39_22_2    R_1_39_22_3
    R_1_39_23_1    R_1_39_23_2    R_1_39_23_3    R_1_39_24_1    R_1_39_24_2    R_1_39_24_3    R_1_39_25_1    R_1_39_25_2
    R_1_39_25_3    R_1_39_26_1    R_1_39_26_2    R_1_39_26_3    R_1_39_27_1    R_1_39_27_2    R_1_39_27_3    R_1_39_28_1
    R_1_39_28_2    R_1_39_28_3    R_1_39_29_1    R_1_39_29_2    R_1_39_29_3     R_1_39_2_1     R_1_39_2_2     R_1_39_2_3
    R_1_39_30_1    R_1_39_30_2    R_1_39_30_3    R_1_39_31_1    R_1_39_31_2    R_1_39_31_3    R_1_39_32_1    R_1_39_32_2
    R_1_39_32_3    R_1_39_33_1    R_1_39_33_2    R_1_39_33_3    R_1_39_34_1    R_1_39_34_2    R_1_39_34_3    R_1_39_35_1
    R_1_39_35_2    R_1_39_35_3    R_1_39_36_1    R_1_39_36_2    R_1_39_36_3    R_1_39_37_1    R_1_39_37_2    R_1_39_37_3
    R_1_39_38_1    R_1_39_38_2    R_1_39_38_3    R_1_39_39_1    R_1_39_39_2    R_1_39_39_3     R_1_39_3_1     R_1_39_3_2
     R_1_39_3_3    R_1_39_40_1    R_1_39_40_2    R_1_39_40_3    R_1_39_41_1    R_1_39_41_2    R_1_39_41_3    R_1_39_42_1
    R_1_39_42_2    R_1_39_42_3    R_1_39_43_1    R_1_39_43_2    R_1_39_43_3    R_1_39_44_1    R_1_39_44_2    R_1_39_44_3
    R_1_39_45_1    R_1_39_45_2    R_1_39_45_3    R_1_39_46_1    R_1_39_46_2    R_1_39_46_3    R_1_39_47_1    R_1_39_47_2
    R_1_39_47_3    R_1_39_48_1    R_1_39_48_2    R_1_39_48_3    R_1_39_49_1    R_1_39_49_2    R_1_39_49_3     R_1_39_4_1
     R_1_39_4_2     R_1_39_4_3    R_1_39_50_1    R_1_39_50_2    R_1_39_50_3    R_1_39_51_1    R_1_39_51_2    R_1_39_51_3
    R_1_39_52_1    R_1_39_52_2    R_1_39_52_3    R_1_39_53_1    R_1_39_53_2    R_1_39_53_3    R_1_39_54_1    R_1_39_54_2
    R_1_39_54_3    R_1_39_55_1    R_1_39_55_2    R_1_39_55_3    R_1_39_56_1    R_1_39_56_2    R_1_39_56_3    R_1_39_57_1
    R_1_39_57_2    R_1_39_57_3    R_1_39_58_1    R_1_39_58_2    R_1_39_58_3    R_1_39_59_1    R_1_39_59_2    R_1_39_59_3
     R_1_39_5_1     R_1_39_5_2     R_1_39_5_3    R_1_39_60_1    R_1_39_60_2    R_1_39_60_3    R_1_39_61_1    R_1_39_61_2
    R_1_39_61_3    R_1_39_62_1    R_1_39_62_2    R_1_39_62_3    R_1_39_63_1    R_1_39_63_2    R_1_39_63_3    R_1_39_64_1
    R_1_39_64_2    R_1_39_64_3    R_1_39_65_1    R_1_39_65_2    R_1_39_65_3    R_1_39_66_1    R_1_39_66_2    R_1_39_66_3
    R_1_39_67_1    R_1_39_67_2    R_1_39_67_3    R_1_39_68_1    R_1_39_68_2    R_1_39_68_3    R_1_39_69_1    R_1_39_69_2
    R_1_39_69_3     R_1_39_6_1     R_1_39_6_2     R_1_39_6_3    R_1_39_70_1    R_1_39_70_2    R_1_39_70_3    R_1_39_71_1
    R_1_39_71_2    R_1_39_71_3    R_1_39_72_1    R_1_39_72_2    R_1_39_72_3    R_1_39_73_1    R_1_39_73_2    R_1_39_73_3
    R_1_39_74_1    R_1_39_74_2    R_1_39_74_3    R_1_39_75_1    R_1_39_75_2    R_1_39_75_3    R_1_39_76_1    R_1_39_76_2
    R_1_39_76_3    R_1_39_77_1    R_1_39_77_2    R_1_39_77_3    R_1_39_78_1    R_1_39_78_2    R_1_39_78_3    R_1_39_79_2
    R_1_39_79_3     R_1_39_7_1     R_1_39_7_2     R_1_39_7_3     R_1_39_8_1     R_1_39_8_2     R_1_39_8_3     R_1_39_9_1
     R_1_39_9_2     R_1_39_9_3     R_1_40_0_1     R_1_40_0_2     R_1_40_0_3    R_1_40_10_1    R_1_40_10_2    R_1_40_10_3
    R_1_40_11_1    R_1_40_11_2    R_1_40_11_3    R_1_40_12_1    R_1_40_12_2    R_1_40_12_3    R_1_40_13_1    R_1_40_13_2
    R_1_40_13_3    R_1_40_14_1    R_1_40_14_2    R_1_40_14_3    R_1_40_15_1    R_1_40_15_2    R_1_40_15_3    R_1_40_16_1
    R_1_40_16_2    R_1_40_16_3    R_1_40_17_1    R_1_40_17_2    R_1_40_17_3    R_1_40_18_1    R_1_40_18_2    R_1_40_18_3
    R_1_40_19_1    R_1_40_19_2    R_1_40_19_3     R_1_40_1_1     R_1_40_1_2     R_1_40_1_3    R_1_40_20_1    R_1_40_20_2
    R_1_40_20_3    R_1_40_21_1    R_1_40_21_2    R_1_40_21_3    R_1_40_22_1    R_1_40_22_2    R_1_40_22_3    R_1_40_23_1
    R_1_40_23_2    R_1_40_23_3    R_1_40_24_1    R_1_40_24_2    R_1_40_24_3    R_1_40_25_1    R_1_40_25_2    R_1_40_25_3
    R_1_40_26_1    R_1_40_26_2    R_1_40_26_3    R_1_40_27_1    R_1_40_27_2    R_1_40_27_3    R_1_40_28_1    R_1_40_28_2
    R_1_40_28_3    R_1_40_29_1    R_1_40_29_2    R_1_40_29_3     R_1_40_2_1     R_1_40_2_2     R_1_40_2_3    R_1_40_30_1
    R_1_40_30_2    R_1_40_30_3    R_1_40_31_1    R_1_40_31_2    R_1_40_31_3    R_1_40_32_1    R_1_40_32_2    R_1_40_32_3
    R_1_40_33_1    R_1_40_33_2    R_1_40_33_3    R_1_40_34_1    R_1_40_34_2    R_1_40_34_3    R_1_40_35_1    R_1_40_35_2
    R_1_40_35_3    R_1_40_36_1    R_1_40_36_2    R_1_40_36_3    R_1_40_37_1    R_1_40_37_2    R_1_40_37_3    R_1_40_38_1
    R_1_40_38_2    R_1_40_38_3    R_1_40_39_1    R_1_40_39_2    R_1_40_39_3     R_1_40_3_1     R_1_40_3_2     R_1_40_3_3
    R_1_40_40_1    R_1_40_40_2    R_1_40_40_3    R_1_40_41_1    R_1_40_41_2    R_1_40_41_3    R_1_40_42_1    R_1_40_42_2
    R_1_40_42_3    R_1_40_43_1    R_1_40_43_2    R_1_40_43_3    R_1_40_44_1    R_1_40_44_2    R_1_40_44_3    R_1_40_45_1
    R_1_40_45_2    R_1_40_45_3    R_1_40_46_1    R_1_40_46_2    R_1_40_46_3    R_1_40_47_1    R_1_40_47_2    R_1_40_47_3
    R_1_40_48_1    R_1_40_48_2    R_1_40_48_3    R_1_40_49_1    R_1_40_49_2    R_1_40_49_3     R_1_40_4_1     R_1_40_4_2
     R_1_40_4_3    R_1_40_50_1    R_1_40_50_2    R_1_40_50_3    R_1_40_51_1    R_1_40_51_2    R_1_40_51_3    R_1_40_52_1
    R_1_40_52_2    R_1_40_52_3    R_1_40_53_1    R_1_40_53_2    R_1_40_53_3    R_1_40_54_1    R_1_40_54_2    R_1_40_54_3
    R_1_40_55_1    R_1_40_55_2    R_1_40_55_3    R_1_40_56_1    R_1_40_56_2    R_1_40_56_3    R_1_40_57_1    R_1_40_57_2
    R_1_40_57_3    R_1_40_58_1    R_1_40_58_2    R_1_40_58_3    R_1_40_59_1    R_1_40_59_2    R_1_40_59_3     R_1_40_5_1
     R_1_40_5_2     R_1_40_5_3    R_1_40_60_1    R_1_40_60_2    R_1_40_60_3    R_1_40_61_1    R_1_40_61_2    R_1_40_61_3
    R_1_40_62_1    R_1_40_62_2    R_1_40_62_3    R_1_40_63_1    R_1_40_63_2    R_1_40_63_3    R_1_40_64_1    R_1_40_64_2
    R_1_40_64_3    R_1_40_65_1    R_1_40_65_2    R_1_40_65_3    R_1_40_66_1    R_1_40_66_2    R_1_40_66_3    R_1_40_67_1
    R_1_40_67_2    R_1_40_67_3    R_1_40_68_1    R_1_40_68_2    R_1_40_68_3    R_1_40_69_1    R_1_40_69_2    R_1_40_69_3
     R_1_40_6_1     R_1_40_6_2     R_1_40_6_3    R_1_40_70_1    R_1_40_70_2    R_1_40_70_3    R_1_40_71_1    R_1_40_71_2
    R_1_40_71_3    R_1_40_72_1    R_1_40_72_2    R_1_40_72_3    R_1_40_73_1    R_1_40_73_2    R_1_40_73_3    R_1_40_74_1
    R_1_40_74_2    R_1_40_74_3    R_1_40_75_1    R_1_40_75_2    R_1_40_75_3    R_1_40_76_1    R_1_40_76_2    R_1_40_76_3
    R_1_40_77_1    R_1_40_77_2    R_1_40_77_3    R_1_40_78_1    R_1_40_78_2    R_1_40_78_3    R_1_40_79_2    R_1_40_79_3
     R_1_40_7_1     R_1_40_7_2     R_1_40_7_3     R_1_40_8_1     R_1_40_8_2     R_1_40_8_3     R_1_40_9_1     R_1_40_9_2
     R_1_40_9_3     R_1_41_0_1     R_1_41_0_2     R_1_41_0_3    R_1_41_10_1    R_1_41_10_2    R_1_41_10_3    R_1_41_11_1
    R_1_41_11_2    R_1_41_11_3    R_1_41_12_1    R_1_41_12_2    R_1_41_12_3    R_1_41_13_1    R_1_41_13_2    R_1_41_13_3
    R_1_41_14_1    R_1_41_14_2    R_1_41_14_3    R_1_41_15_1    R_1_41_15_2    R_1_41_15_3    R_1_41_16_1    R_1_41_16_2
    R_1_41_16_3    R_1_41_17_1    R_1_41_17_2    R_1_41_17_3    R_1_41_18_1    R_1_41_18_2    R_1_41_18_3    R_1_41_19_1
    R_1_41_19_2    R_1_41_19_3     R_1_41_1_1     R_1_41_1_2     R_1_41_1_3    R_1_41_20_1    R_1_41_20_2    R_1_41_20_3
    R_1_41_21_1    R_1_41_21_2    R_1_41_21_3    R_1_41_22_1    R_1_41_22_2    R_1_41_22_3    R_1_41_23_1    R_1_41_23_2
    R_1_41_23_3    R_1_41_24_1    R_1_41_24_2    R_1_41_24_3    R_1_41_25_1    R_1_41_25_2    R_1_41_25_3    R_1_41_26_1
    R_1_41_26_2    R_1_41_26_3    R_1_41_27_1    R_1_41_27_2    R_1_41_27_3    R_1_41_28_1    R_1_41_28_2    R_1_41_28_3
    R_1_41_29_1    R_1_41_29_2    R_1_41_29_3     R_1_41_2_1     R_1_41_2_2     R_1_41_2_3    R_1_41_30_1    R_1_41_30_2
    R_1_41_30_3    R_1_41_31_1    R_1_41_31_2    R_1_41_31_3    R_1_41_32_1    R_1_41_32_2    R_1_41_32_3    R_1_41_33_1
    R_1_41_33_2    R_1_41_33_3    R_1_41_34_1    R_1_41_34_2    R_1_41_34_3    R_1_41_35_1    R_1_41_35_2    R_1_41_35_3
    R_1_41_36_1    R_1_41_36_2    R_1_41_36_3    R_1_41_37_1    R_1_41_37_2    R_1_41_37_3    R_1_41_38_1    R_1_41_38_2
    R_1_41_38_3    R_1_41_39_1    R_1_41_39_2    R_1_41_39_3     R_1_41_3_1     R_1_41_3_2     R_1_41_3_3    R_1_41_40_1
    R_1_41_40_2    R_1_41_40_3    R_1_41_41_1    R_1_41_41_2    R_1_41_41_3    R_1_41_42_1    R_1_41_42_2    R_1_41_42_3
    R_1_41_43_1    R_1_41_43_2    R_1_41_43_3    R_1_41_44_1    R_1_41_44_2    R_1_41_44_3    R_1_41_45_1    R_1_41_45_2
    R_1_41_45_3    R_1_41_46_1    R_1_41_46_2    R_1_41_46_3    R_1_41_47_1    R_1_41_47_2    R_1_41_47_3    R_1_41_48_1
    R_1_41_48_2    R_1_41_48_3    R_1_41_49_1    R_1_41_49_2    R_1_41_49_3     R_1_41_4_1     R_1_41_4_2     R_1_41_4_3
    R_1_41_50_1    R_1_41_50_2    R_1_41_50_3    R_1_41_51_1    R_1_41_51_2    R_1_41_51_3    R_1_41_52_1    R_1_41_52_2
    R_1_41_52_3    R_1_41_53_1    R_1_41_53_2    R_1_41_53_3    R_1_41_54_1    R_1_41_54_2    R_1_41_54_3    R_1_41_55_1
    R_1_41_55_2    R_1_41_55_3    R_1_41_56_1    R_1_41_56_2    R_1_41_56_3    R_1_41_57_1    R_1_41_57_2    R_1_41_57_3
    R_1_41_58_1    R_1_41_58_2    R_1_41_58_3    R_1_41_59_1    R_1_41_59_2    R_1_41_59_3     R_1_41_5_1     R_1_41_5_2
     R_1_41_5_3    R_1_41_60_1    R_1_41_60_2    R_1_41_60_3    R_1_41_61_1    R_1_41_61_2    R_1_41_61_3    R_1_41_62_1
    R_1_41_62_2    R_1_41_62_3    R_1_41_63_1    R_1_41_63_2    R_1_41_63_3    R_1_41_64_1    R_1_41_64_2    R_1_41_64_3
    R_1_41_65_1    R_1_41_65_2    R_1_41_65_3    R_1_41_66_1    R_1_41_66_2    R_1_41_66_3    R_1_41_67_1    R_1_41_67_2
    R_1_41_67_3    R_1_41_68_1    R_1_41_68_2    R_1_41_68_3    R_1_41_69_1    R_1_41_69_2    R_1_41_69_3     R_1_41_6_1
     R_1_41_6_2     R_1_41_6_3    R_1_41_70_1    R_1_41_70_2    R_1_41_70_3    R_1_41_71_1    R_1_41_71_2    R_1_41_71_3
    R_1_41_72_1    R_1_41_72_2    R_1_41_72_3    R_1_41_73_1    R_1_41_73_2    R_1_41_73_3    R_1_41_74_1    R_1_41_74_2
    R_1_41_74_3    R_1_41_75_1    R_1_41_75_2    R_1_41_75_3    R_1_41_76_1    R_1_41_76_2    R_1_41_76_3    R_1_41_77_1
    R_1_41_77_2    R_1_41_77_3    R_1_41_78_1    R_1_41_78_2    R_1_41_78_3    R_1_41_79_2    R_1_41_79_3     R_1_41_7_1
     R_1_41_7_2     R_1_41_7_3     R_1_41_8_1     R_1_41_8_2     R_1_41_8_3     R_1_41_9_1     R_1_41_9_2     R_1_41_9_3
     R_1_42_0_1     R_1_42_0_2     R_1_42_0_3    R_1_42_10_1    R_1_42_10_2    R_1_42_10_3    R_1_42_11_1    R_1_42_11_2
    R_1_42_11_3    R_1_42_12_1    R_1_42_12_2    R_1_42_12_3    R_1_42_13_1    R_1_42_13_2    R_1_42_13_3    R_1_42_14_1
    R_1_42_14_2    R_1_42_14_3    R_1_42_15_1    R_1_42_15_2    R_1_42_15_3    R_1_42_16_1    R_1_42_16_2    R_1_42_16_3
    R_1_42_17_1    R_1_42_17_2    R_1_42_17_3    R_1_42_18_1    R_1_42_18_2    R_1_42_18_3    R_1_42_19_1    R_1_42_19_2
    R_1_42_19_3     R_1_42_1_1     R_1_42_1_2     R_1_42_1_3    R_1_42_20_1    R_1_42_20_2    R_1_42_20_3    R_1_42_21_1
    R_1_42_21_2    R_1_42_21_3    R_1_42_22_1    R_1_42_22_2    R_1_42_22_3    R_1_42_23_1    R_1_42_23_2    R_1_42_23_3
    R_1_42_24_1    R_1_42_24_2    R_1_42_24_3    R_1_42_25_1    R_1_42_25_2    R_1_42_25_3    R_1_42_26_1    R_1_42_26_2
    R_1_42_26_3    R_1_42_27_1    R_1_42_27_2    R_1_42_27_3    R_1_42_28_1    R_1_42_28_2    R_1_42_28_3    R_1_42_29_1
    R_1_42_29_2    R_1_42_29_3     R_1_42_2_1     R_1_42_2_2     R_1_42_2_3    R_1_42_30_1    R_1_42_30_2    R_1_42_30_3
    R_1_42_31_1    R_1_42_31_2    R_1_42_31_3    R_1_42_32_1    R_1_42_32_2    R_1_42_32_3    R_1_42_33_1    R_1_42_33_2
    R_1_42_33_3    R_1_42_34_1    R_1_42_34_2    R_1_42_34_3    R_1_42_35_1    R_1_42_35_2    R_1_42_35_3    R_1_42_36_1
    R_1_42_36_2    R_1_42_36_3    R_1_42_37_1    R_1_42_37_2    R_1_42_37_3    R_1_42_38_1    R_1_42_38_2    R_1_42_38_3
    R_1_42_39_1    R_1_42_39_2    R_1_42_39_3     R_1_42_3_1     R_1_42_3_2     R_1_42_3_3    R_1_42_40_1    R_1_42_40_2
    R_1_42_40_3    R_1_42_41_1    R_1_42_41_2    R_1_42_41_3    R_1_42_42_1    R_1_42_42_2    R_1_42_42_3    R_1_42_43_1
    R_1_42_43_2    R_1_42_43_3    R_1_42_44_1    R_1_42_44_2    R_1_42_44_3    R_1_42_45_1    R_1_42_45_2    R_1_42_45_3
    R_1_42_46_1    R_1_42_46_2    R_1_42_46_3    R_1_42_47_1    R_1_42_47_2    R_1_42_47_3    R_1_42_48_1    R_1_42_48_2
    R_1_42_48_3    R_1_42_49_1    R_1_42_49_2    R_1_42_49_3     R_1_42_4_1     R_1_42_4_2     R_1_42_4_3    R_1_42_50_1
    R_1_42_50_2    R_1_42_50_3    R_1_42_51_1    R_1_42_51_2    R_1_42_51_3    R_1_42_52_1    R_1_42_52_2    R_1_42_52_3
    R_1_42_53_1    R_1_42_53_2    R_1_42_53_3    R_1_42_54_1    R_1_42_54_2    R_1_42_54_3    R_1_42_55_1    R_1_42_55_2
    R_1_42_55_3    R_1_42_56_1    R_1_42_56_2    R_1_42_56_3    R_1_42_57_1    R_1_42_57_2    R_1_42_57_3    R_1_42_58_1
    R_1_42_58_2    R_1_42_58_3    R_1_42_59_1    R_1_42_59_2    R_1_42_59_3     R_1_42_5_1     R_1_42_5_2     R_1_42_5_3
    R_1_42_60_1    R_1_42_60_2    R_1_42_60_3    R_1_42_61_1    R_1_42_61_2    R_1_42_61_3    R_1_42_62_1    R_1_42_62_2
    R_1_42_62_3    R_1_42_63_1    R_1_42_63_2    R_1_42_63_3    R_1_42_64_1    R_1_42_64_2    R_1_42_64_3    R_1_42_65_1
    R_1_42_65_2    R_1_42_65_3    R_1_42_66_1    R_1_42_66_2    R_1_42_66_3    R_1_42_67_1    R_1_42_67_2    R_1_42_67_3
    R_1_42_68_1    R_1_42_68_2    R_1_42_68_3    R_1_42_69_1    R_1_42_69_2    R_1_42_69_3     R_1_42_6_1     R_1_42_6_2
     R_1_42_6_3    R_1_42_70_1    R_1_42_70_2    R_1_42_70_3    R_1_42_71_1    R_1_42_71_2    R_1_42_71_3    R_1_42_72_1
    R_1_42_72_2    R_1_42_72_3    R_1_42_73_1    R_1_42_73_2    R_1_42_73_3    R_1_42_74_1    R_1_42_74_2    R_1_42_74_3
    R_1_42_75_1    R_1_42_75_2    R_1_42_75_3    R_1_42_76_1    R_1_42_76_2    R_1_42_76_3    R_1_42_77_1    R_1_42_77_2
    R_1_42_77_3    R_1_42_78_1    R_1_42_78_2    R_1_42_78_3    R_1_42_79_2    R_1_42_79_3     R_1_42_7_1     R_1_42_7_2
     R_1_42_7_3     R_1_42_8_1     R_1_42_8_2     R_1_42_8_3     R_1_42_9_1     R_1_42_9_2     R_1_42_9_3     R_1_43_0_1
     R_1_43_0_2     R_1_43_0_3    R_1_43_10_1    R_1_43_10_2    R_1_43_10_3    R_1_43_11_1    R_1_43_11_2    R_1_43_11_3
    R_1_43_12_1    R_1_43_12_2    R_1_43_12_3    R_1_43_13_1    R_1_43_13_2    R_1_43_13_3    R_1_43_14_1    R_1_43_14_2
    R_1_43_14_3    R_1_43_15_1    R_1_43_15_2    R_1_43_15_3    R_1_43_16_1    R_1_43_16_2    R_1_43_16_3    R_1_43_17_1
    R_1_43_17_2    R_1_43_17_3    R_1_43_18_1    R_1_43_18_2    R_1_43_18_3    R_1_43_19_1    R_1_43_19_2    R_1_43_19_3
     R_1_43_1_1     R_1_43_1_2     R_1_43_1_3    R_1_43_20_1    R_1_43_20_2    R_1_43_20_3    R_1_43_21_1    R_1_43_21_2
    R_1_43_21_3    R_1_43_22_1    R_1_43_22_2    R_1_43_22_3    R_1_43_23_1    R_1_43_23_2    R_1_43_23_3    R_1_43_24_1
    R_1_43_24_2    R_1_43_24_3    R_1_43_25_1    R_1_43_25_2    R_1_43_25_3    R_1_43_26_1    R_1_43_26_2    R_1_43_26_3
    R_1_43_27_1    R_1_43_27_2    R_1_43_27_3    R_1_43_28_1    R_1_43_28_2    R_1_43_28_3    R_1_43_29_1    R_1_43_29_2
    R_1_43_29_3     R_1_43_2_1     R_1_43_2_2     R_1_43_2_3    R_1_43_30_1    R_1_43_30_2    R_1_43_30_3    R_1_43_31_1
    R_1_43_31_2    R_1_43_31_3    R_1_43_32_1    R_1_43_32_2    R_1_43_32_3    R_1_43_33_1    R_1_43_33_2    R_1_43_33_3
    R_1_43_34_1    R_1_43_34_2    R_1_43_34_3    R_1_43_35_1    R_1_43_35_2    R_1_43_35_3    R_1_43_36_1    R_1_43_36_2
    R_1_43_36_3    R_1_43_37_1    R_1_43_37_2    R_1_43_37_3    R_1_43_38_1    R_1_43_38_2    R_1_43_38_3    R_1_43_39_1
    R_1_43_39_2    R_1_43_39_3     R_1_43_3_1     R_1_43_3_2     R_1_43_3_3    R_1_43_40_1    R_1_43_40_2    R_1_43_40_3
    R_1_43_41_1    R_1_43_41_2    R_1_43_41_3    R_1_43_42_1    R_1_43_42_2    R_1_43_42_3    R_1_43_43_1    R_1_43_43_2
    R_1_43_43_3    R_1_43_44_1    R_1_43_44_2    R_1_43_44_3    R_1_43_45_1    R_1_43_45_2    R_1_43_45_3    R_1_43_46_1
    R_1_43_46_2    R_1_43_46_3    R_1_43_47_1    R_1_43_47_2    R_1_43_47_3    R_1_43_48_1    R_1_43_48_2    R_1_43_48_3
    R_1_43_49_1    R_1_43_49_2    R_1_43_49_3     R_1_43_4_1     R_1_43_4_2     R_1_43_4_3    R_1_43_50_1    R_1_43_50_2
    R_1_43_50_3    R_1_43_51_1    R_1_43_51_2    R_1_43_51_3    R_1_43_52_1    R_1_43_52_2    R_1_43_52_3    R_1_43_53_1
    R_1_43_53_2    R_1_43_53_3    R_1_43_54_1    R_1_43_54_2    R_1_43_54_3    R_1_43_55_1    R_1_43_55_2    R_1_43_55_3
    R_1_43_56_1    R_1_43_56_2    R_1_43_56_3    R_1_43_57_1    R_1_43_57_2    R_1_43_57_3    R_1_43_58_1    R_1_43_58_2
    R_1_43_58_3    R_1_43_59_1    R_1_43_59_2    R_1_43_59_3     R_1_43_5_1     R_1_43_5_2     R_1_43_5_3    R_1_43_60_1
    R_1_43_60_2    R_1_43_60_3    R_1_43_61_1    R_1_43_61_2    R_1_43_61_3    R_1_43_62_1    R_1_43_62_2    R_1_43_62_3
    R_1_43_63_1    R_1_43_63_2    R_1_43_63_3    R_1_43_64_1    R_1_43_64_2    R_1_43_64_3    R_1_43_65_1    R_1_43_65_2
    R_1_43_65_3    R_1_43_66_1    R_1_43_66_2    R_1_43_66_3    R_1_43_67_1    R_1_43_67_2    R_1_43_67_3    R_1_43_68_1
    R_1_43_68_2    R_1_43_68_3    R_1_43_69_1    R_1_43_69_2    R_1_43_69_3     R_1_43_6_1     R_1_43_6_2     R_1_43_6_3
    R_1_43_70_1    R_1_43_70_2    R_1_43_70_3    R_1_43_71_1    R_1_43_71_2    R_1_43_71_3    R_1_43_72_1    R_1_43_72_2
    R_1_43_72_3    R_1_43_73_1    R_1_43_73_2    R_1_43_73_3    R_1_43_74_1    R_1_43_74_2    R_1_43_74_3    R_1_43_75_1
    R_1_43_75_2    R_1_43_75_3    R_1_43_76_1    R_1_43_76_2    R_1_43_76_3    R_1_43_77_1    R_1_43_77_2    R_1_43_77_3
    R_1_43_78_1    R_1_43_78_2    R_1_43_78_3    R_1_43_79_2    R_1_43_79_3     R_1_43_7_1     R_1_43_7_2     R_1_43_7_3
     R_1_43_8_1     R_1_43_8_2     R_1_43_8_3     R_1_43_9_1     R_1_43_9_2     R_1_43_9_3     R_1_44_0_1     R_1_44_0_2
     R_1_44_0_3    R_1_44_10_1    R_1_44_10_2    R_1_44_10_3    R_1_44_11_1    R_1_44_11_2    R_1_44_11_3    R_1_44_12_1
    R_1_44_12_2    R_1_44_12_3    R_1_44_13_1    R_1_44_13_2    R_1_44_13_3    R_1_44_14_1    R_1_44_14_2    R_1_44_14_3
    R_1_44_15_1    R_1_44_15_2    R_1_44_15_3    R_1_44_16_1    R_1_44_16_2    R_1_44_16_3    R_1_44_17_1    R_1_44_17_2
    R_1_44_17_3    R_1_44_18_1    R_1_44_18_2    R_1_44_18_3    R_1_44_19_1    R_1_44_19_2    R_1_44_19_3     R_1_44_1_1
     R_1_44_1_2     R_1_44_1_3    R_1_44_20_1    R_1_44_20_2    R_1_44_20_3    R_1_44_21_1    R_1_44_21_2    R_1_44_21_3
    R_1_44_22_1    R_1_44_22_2    R_1_44_22_3    R_1_44_23_1    R_1_44_23_2    R_1_44_23_3    R_1_44_24_1    R_1_44_24_2
    R_1_44_24_3    R_1_44_25_1    R_1_44_25_2    R_1_44_25_3    R_1_44_26_1    R_1_44_26_2    R_1_44_26_3    R_1_44_27_1
    R_1_44_27_2    R_1_44_27_3    R_1_44_28_1    R_1_44_28_2    R_1_44_28_3    R_1_44_29_1    R_1_44_29_2    R_1_44_29_3
     R_1_44_2_1     R_1_44_2_2     R_1_44_2_3    R_1_44_30_1    R_1_44_30_2    R_1_44_30_3    R_1_44_31_1    R_1_44_31_2
    R_1_44_31_3    R_1_44_32_1    R_1_44_32_2    R_1_44_32_3    R_1_44_33_1    R_1_44_33_2    R_1_44_33_3    R_1_44_34_1
    R_1_44_34_2    R_1_44_34_3    R_1_44_35_1    R_1_44_35_2    R_1_44_35_3    R_1_44_36_1    R_1_44_36_2    R_1_44_36_3
    R_1_44_37_1    R_1_44_37_2    R_1_44_37_3    R_1_44_38_1    R_1_44_38_2    R_1_44_38_3    R_1_44_39_1    R_1_44_39_2
    R_1_44_39_3     R_1_44_3_1     R_1_44_3_2     R_1_44_3_3    R_1_44_40_1    R_1_44_40_2    R_1_44_40_3    R_1_44_41_1
    R_1_44_41_2    R_1_44_41_3    R_1_44_42_1    R_1_44_42_2    R_1_44_42_3    R_1_44_43_1    R_1_44_43_2    R_1_44_43_3
    R_1_44_44_1    R_1_44_44_2    R_1_44_44_3    R_1_44_45_1    R_1_44_45_2    R_1_44_45_3    R_1_44_46_1    R_1_44_46_2
    R_1_44_46_3    R_1_44_47_1    R_1_44_47_2    R_1_44_47_3    R_1_44_48_1    R_1_44_48_2    R_1_44_48_3    R_1_44_49_1
    R_1_44_49_2    R_1_44_49_3     R_1_44_4_1     R_1_44_4_2     R_1_44_4_3    R_1_44_50_1    R_1_44_50_2    R_1_44_50_3
    R_1_44_51_1    R_1_44_51_2    R_1_44_51_3    R_1_44_52_1    R_1_44_52_2    R_1_44_52_3    R_1_44_53_1    R_1_44_53_2
    R_1_44_53_3    R_1_44_54_1    R_1_44_54_2    R_1_44_54_3    R_1_44_55_1    R_1_44_55_2    R_1_44_55_3    R_1_44_56_1
    R_1_44_56_2    R_1_44_56_3    R_1_44_57_1    R_1_44_57_2    R_1_44_57_3    R_1_44_58_1    R_1_44_58_2    R_1_44_58_3
    R_1_44_59_1    R_1_44_59_2    R_1_44_59_3     R_1_44_5_1     R_1_44_5_2     R_1_44_5_3    R_1_44_60_1    R_1_44_60_2
    R_1_44_60_3    R_1_44_61_1    R_1_44_61_2    R_1_44_61_3    R_1_44_62_1    R_1_44_62_2    R_1_44_62_3    R_1_44_63_1
    R_1_44_63_2    R_1_44_63_3    R_1_44_64_1    R_1_44_64_2    R_1_44_64_3    R_1_44_65_1    R_1_44_65_2    R_1_44_65_3
    R_1_44_66_1    R_1_44_66_2    R_1_44_66_3    R_1_44_67_1    R_1_44_67_2    R_1_44_67_3    R_1_44_68_1    R_1_44_68_2
    R_1_44_68_3    R_1_44_69_1    R_1_44_69_2    R_1_44_69_3     R_1_44_6_1     R_1_44_6_2     R_1_44_6_3    R_1_44_70_1
    R_1_44_70_2    R_1_44_70_3    R_1_44_71_1    R_1_44_71_2    R_1_44_71_3    R_1_44_72_1    R_1_44_72_2    R_1_44_72_3
    R_1_44_73_1    R_1_44_73_2    R_1_44_73_3    R_1_44_74_1    R_1_44_74_2    R_1_44_74_3    R_1_44_75_1    R_1_44_75_2
    R_1_44_75_3    R_1_44_76_1    R_1_44_76_2    R_1_44_76_3    R_1_44_77_1    R_1_44_77_2    R_1_44_77_3    R_1_44_78_1
    R_1_44_78_2    R_1_44_78_3    R_1_44_79_2    R_1_44_79_3     R_1_44_7_1     R_1_44_7_2     R_1_44_7_3     R_1_44_8_1
     R_1_44_8_2     R_1_44_8_3     R_1_44_9_1     R_1_44_9_2     R_1_44_9_3     R_1_45_0_1     R_1_45_0_2     R_1_45_0_3
    R_1_45_10_1    R_1_45_10_2    R_1_45_10_3    R_1_45_11_1    R_1_45_11_2    R_1_45_11_3    R_1_45_12_1    R_1_45_12_2
    R_1_45_12_3    R_1_45_13_1    R_1_45_13_2    R_1_45_13_3    R_1_45_14_1    R_1_45_14_2    R_1_45_14_3    R_1_45_15_1
    R_1_45_15_2    R_1_45_15_3    R_1_45_16_1    R_1_45_16_2    R_1_45_16_3    R_1_45_17_1    R_1_45_17_2    R_1_45_17_3
    R_1_45_18_1    R_1_45_18_2    R_1_45_18_3    R_1_45_19_1    R_1_45_19_2    R_1_45_19_3     R_1_45_1_1     R_1_45_1_2
     R_1_45_1_3    R_1_45_20_1    R_1_45_20_2    R_1_45_20_3    R_1_45_21_1    R_1_45_21_2    R_1_45_21_3    R_1_45_22_1
    R_1_45_22_2    R_1_45_22_3    R_1_45_23_1    R_1_45_23_2    R_1_45_23_3    R_1_45_24_1    R_1_45_24_2    R_1_45_24_3
    R_1_45_25_1    R_1_45_25_2    R_1_45_25_3    R_1_45_26_1    R_1_45_26_2    R_1_45_26_3    R_1_45_27_1    R_1_45_27_2
    R_1_45_27_3    R_1_45_28_1    R_1_45_28_2    R_1_45_28_3    R_1_45_29_1    R_1_45_29_2    R_1_45_29_3     R_1_45_2_1
     R_1_45_2_2     R_1_45_2_3    R_1_45_30_1    R_1_45_30_2    R_1_45_30_3    R_1_45_31_1    R_1_45_31_2    R_1_45_31_3
    R_1_45_32_1    R_1_45_32_2    R_1_45_32_3    R_1_45_33_1    R_1_45_33_2    R_1_45_33_3    R_1_45_34_1    R_1_45_34_2
    R_1_45_34_3    R_1_45_35_1    R_1_45_35_2    R_1_45_35_3    R_1_45_36_1    R_1_45_36_2    R_1_45_36_3    R_1_45_37_1
    R_1_45_37_2    R_1_45_37_3    R_1_45_38_1    R_1_45_38_2    R_1_45_38_3    R_1_45_39_1    R_1_45_39_2    R_1_45_39_3
     R_1_45_3_1     R_1_45_3_2     R_1_45_3_3    R_1_45_40_1    R_1_45_40_2    R_1_45_40_3    R_1_45_41_1    R_1_45_41_2
    R_1_45_41_3    R_1_45_42_1    R_1_45_42_2    R_1_45_42_3    R_1_45_43_1    R_1_45_43_2    R_1_45_43_3    R_1_45_44_1
    R_1_45_44_2    R_1_45_44_3    R_1_45_45_1    R_1_45_45_2    R_1_45_45_3    R_1_45_46_1    R_1_45_46_2    R_1_45_46_3
    R_1_45_47_1    R_1_45_47_2    R_1_45_47_3    R_1_45_48_1    R_1_45_48_2    R_1_45_48_3    R_1_45_49_1    R_1_45_49_2
    R_1_45_49_3     R_1_45_4_1     R_1_45_4_2     R_1_45_4_3    R_1_45_50_1    R_1_45_50_2    R_1_45_50_3    R_1_45_51_1
    R_1_45_51_2    R_1_45_51_3    R_1_45_52_1    R_1_45_52_2    R_1_45_52_3    R_1_45_53_1    R_1_45_53_2    R_1_45_53_3
    R_1_45_54_1    R_1_45_54_2    R_1_45_54_3    R_1_45_55_1    R_1_45_55_2    R_1_45_55_3    R_1_45_56_1    R_1_45_56_2
    R_1_45_56_3    R_1_45_57_1    R_1_45_57_2    R_1_45_57_3    R_1_45_58_1    R_1_45_58_2    R_1_45_58_3    R_1_45_59_1
    R_1_45_59_2    R_1_45_59_3     R_1_45_5_1     R_1_45_5_2     R_1_45_5_3    R_1_45_60_1    R_1_45_60_2    R_1_45_60_3
    R_1_45_61_1    R_1_45_61_2    R_1_45_61_3    R_1_45_62_1    R_1_45_62_2    R_1_45_62_3    R_1_45_63_1    R_1_45_63_2
    R_1_45_63_3    R_1_45_64_1    R_1_45_64_2    R_1_45_64_3    R_1_45_65_1    R_1_45_65_2    R_1_45_65_3    R_1_45_66_1
    R_1_45_66_2    R_1_45_66_3    R_1_45_67_1    R_1_45_67_2    R_1_45_67_3    R_1_45_68_1    R_1_45_68_2    R_1_45_68_3
    R_1_45_69_1    R_1_45_69_2    R_1_45_69_3     R_1_45_6_1     R_1_45_6_2     R_1_45_6_3    R_1_45_70_1    R_1_45_70_2
    R_1_45_70_3    R_1_45_71_1    R_1_45_71_2    R_1_45_71_3    R_1_45_72_1    R_1_45_72_2    R_1_45_72_3    R_1_45_73_1
    R_1_45_73_2    R_1_45_73_3    R_1_45_74_1    R_1_45_74_2    R_1_45_74_3    R_1_45_75_1    R_1_45_75_2    R_1_45_75_3
    R_1_45_76_1    R_1_45_76_2    R_1_45_76_3    R_1_45_77_1    R_1_45_77_2    R_1_45_77_3    R_1_45_78_1    R_1_45_78_2
    R_1_45_78_3    R_1_45_79_2    R_1_45_79_3     R_1_45_7_1     R_1_45_7_2     R_1_45_7_3     R_1_45_8_1     R_1_45_8_2
     R_1_45_8_3     R_1_45_9_1     R_1_45_9_2     R_1_45_9_3     R_1_46_0_1     R_1_46_0_2     R_1_46_0_3    R_1_46_10_1
    R_1_46_10_2    R_1_46_10_3    R_1_46_11_1    R_1_46_11_2    R_1_46_11_3    R_1_46_12_1    R_1_46_12_2    R_1_46_12_3
    R_1_46_13_1    R_1_46_13_2    R_1_46_13_3    R_1_46_14_1    R_1_46_14_2    R_1_46_14_3    R_1_46_15_1    R_1_46_15_2
    R_1_46_15_3    R_1_46_16_1    R_1_46_16_2    R_1_46_16_3    R_1_46_17_1    R_1_46_17_2    R_1_46_17_3    R_1_46_18_1
    R_1_46_18_2    R_1_46_18_3    R_1_46_19_1    R_1_46_19_2    R_1_46_19_3     R_1_46_1_1     R_1_46_1_2     R_1_46_1_3
    R_1_46_20_1    R_1_46_20_2    R_1_46_20_3    R_1_46_21_1    R_1_46_21_2    R_1_46_21_3    R_1_46_22_1    R_1_46_22_2
    R_1_46_22_3    R_1_46_23_1    R_1_46_23_2    R_1_46_23_3    R_1_46_24_1    R_1_46_24_2    R_1_46_24_3    R_1_46_25_1
    R_1_46_25_2    R_1_46_25_3    R_1_46_26_1    R_1_46_26_2    R_1_46_26_3    R_1_46_27_1    R_1_46_27_2    R_1_46_27_3
    R_1_46_28_1    R_1_46_28_2    R_1_46_28_3    R_1_46_29_1    R_1_46_29_2    R_1_46_29_3     R_1_46_2_1     R_1_46_2_2
     R_1_46_2_3    R_1_46_30_1    R_1_46_30_2    R_1_46_30_3    R_1_46_31_1    R_1_46_31_2    R_1_46_31_3    R_1_46_32_1
    R_1_46_32_2    R_1_46_32_3    R_1_46_33_1    R_1_46_33_2    R_1_46_33_3    R_1_46_34_1    R_1_46_34_2    R_1_46_34_3
    R_1_46_35_1    R_1_46_35_2    R_1_46_35_3    R_1_46_36_1    R_1_46_36_2    R_1_46_36_3    R_1_46_37_1    R_1_46_37_2
    R_1_46_37_3    R_1_46_38_1    R_1_46_38_2    R_1_46_38_3    R_1_46_39_1    R_1_46_39_2    R_1_46_39_3     R_1_46_3_1
     R_1_46_3_2     R_1_46_3_3    R_1_46_40_1    R_1_46_40_2    R_1_46_40_3    R_1_46_41_1    R_1_46_41_2    R_1_46_41_3
    R_1_46_42_1    R_1_46_42_2    R_1_46_42_3    R_1_46_43_1    R_1_46_43_2    R_1_46_43_3    R_1_46_44_1    R_1_46_44_2
    R_1_46_44_3    R_1_46_45_1    R_1_46_45_2    R_1_46_45_3    R_1_46_46_1    R_1_46_46_2    R_1_46_46_3    R_1_46_47_1
    R_1_46_47_2    R_1_46_47_3    R_1_46_48_1    R_1_46_48_2    R_1_46_48_3    R_1_46_49_1    R_1_46_49_2    R_1_46_49_3
     R_1_46_4_1     R_1_46_4_2     R_1_46_4_3    R_1_46_50_1    R_1_46_50_2    R_1_46_50_3    R_1_46_51_1    R_1_46_51_2
    R_1_46_51_3    R_1_46_52_1    R_1_46_52_2    R_1_46_52_3    R_1_46_53_1    R_1_46_53_2    R_1_46_53_3    R_1_46_54_1
    R_1_46_54_2    R_1_46_54_3    R_1_46_55_1    R_1_46_55_2    R_1_46_55_3    R_1_46_56_1    R_1_46_56_2    R_1_46_56_3
    R_1_46_57_1    R_1_46_57_2    R_1_46_57_3    R_1_46_58_1    R_1_46_58_2    R_1_46_58_3    R_1_46_59_1    R_1_46_59_2
    R_1_46_59_3     R_1_46_5_1     R_1_46_5_2     R_1_46_5_3    R_1_46_60_1    R_1_46_60_2    R_1_46_60_3    R_1_46_61_1
    R_1_46_61_2    R_1_46_61_3    R_1_46_62_1    R_1_46_62_2    R_1_46_62_3    R_1_46_63_1    R_1_46_63_2    R_1_46_63_3
    R_1_46_64_1    R_1_46_64_2    R_1_46_64_3    R_1_46_65_1    R_1_46_65_2    R_1_46_65_3    R_1_46_66_1    R_1_46_66_2
    R_1_46_66_3    R_1_46_67_1    R_1_46_67_2    R_1_46_67_3    R_1_46_68_1    R_1_46_68_2    R_1_46_68_3    R_1_46_69_1
    R_1_46_69_2    R_1_46_69_3     R_1_46_6_1     R_1_46_6_2     R_1_46_6_3    R_1_46_70_1    R_1_46_70_2    R_1_46_70_3
    R_1_46_71_1    R_1_46_71_2    R_1_46_71_3    R_1_46_72_1    R_1_46_72_2    R_1_46_72_3    R_1_46_73_1    R_1_46_73_2
    R_1_46_73_3    R_1_46_74_1    R_1_46_74_2    R_1_46_74_3    R_1_46_75_1    R_1_46_75_2    R_1_46_75_3    R_1_46_76_1
    R_1_46_76_2    R_1_46_76_3    R_1_46_77_1    R_1_46_77_2    R_1_46_77_3    R_1_46_78_1    R_1_46_78_2    R_1_46_78_3
    R_1_46_79_2    R_1_46_79_3     R_1_46_7_1     R_1_46_7_2     R_1_46_7_3     R_1_46_8_1     R_1_46_8_2     R_1_46_8_3
     R_1_46_9_1     R_1_46_9_2     R_1_46_9_3     R_1_47_0_1     R_1_47_0_2     R_1_47_0_3    R_1_47_10_1    R_1_47_10_2
    R_1_47_10_3    R_1_47_11_1    R_1_47_11_2    R_1_47_11_3    R_1_47_12_1    R_1_47_12_2    R_1_47_12_3    R_1_47_13_1
    R_1_47_13_2    R_1_47_13_3    R_1_47_14_1    R_1_47_14_2    R_1_47_14_3    R_1_47_15_1    R_1_47_15_2    R_1_47_15_3
    R_1_47_16_1    R_1_47_16_2    R_1_47_16_3    R_1_47_17_1    R_1_47_17_2    R_1_47_17_3    R_1_47_18_1    R_1_47_18_2
    R_1_47_18_3    R_1_47_19_1    R_1_47_19_2    R_1_47_19_3     R_1_47_1_1     R_1_47_1_2     R_1_47_1_3    R_1_47_20_1
    R_1_47_20_2    R_1_47_20_3    R_1_47_21_1    R_1_47_21_2    R_1_47_21_3    R_1_47_22_1    R_1_47_22_2    R_1_47_22_3
    R_1_47_23_1    R_1_47_23_2    R_1_47_23_3    R_1_47_24_1    R_1_47_24_2    R_1_47_24_3    R_1_47_25_1    R_1_47_25_2
    R_1_47_25_3    R_1_47_26_1    R_1_47_26_2    R_1_47_26_3    R_1_47_27_1    R_1_47_27_2    R_1_47_27_3    R_1_47_28_1
    R_1_47_28_2    R_1_47_28_3    R_1_47_29_1    R_1_47_29_2    R_1_47_29_3     R_1_47_2_1     R_1_47_2_2     R_1_47_2_3
    R_1_47_30_1    R_1_47_30_2    R_1_47_30_3    R_1_47_31_1    R_1_47_31_2    R_1_47_31_3    R_1_47_32_1    R_1_47_32_2
    R_1_47_32_3    R_1_47_33_1    R_1_47_33_2    R_1_47_33_3    R_1_47_34_1    R_1_47_34_2    R_1_47_34_3    R_1_47_35_1
    R_1_47_35_2    R_1_47_35_3    R_1_47_36_1    R_1_47_36_2    R_1_47_36_3    R_1_47_37_1    R_1_47_37_2    R_1_47_37_3
    R_1_47_38_1    R_1_47_38_2    R_1_47_38_3    R_1_47_39_1    R_1_47_39_2    R_1_47_39_3     R_1_47_3_1     R_1_47_3_2
     R_1_47_3_3    R_1_47_40_1    R_1_47_40_2    R_1_47_40_3    R_1_47_41_1    R_1_47_41_2    R_1_47_41_3    R_1_47_42_1
    R_1_47_42_2    R_1_47_42_3    R_1_47_43_1    R_1_47_43_2    R_1_47_43_3    R_1_47_44_1    R_1_47_44_2    R_1_47_44_3
    R_1_47_45_1    R_1_47_45_2    R_1_47_45_3    R_1_47_46_1    R_1_47_46_2    R_1_47_46_3    R_1_47_47_1    R_1_47_47_2
    R_1_47_47_3    R_1_47_48_1    R_1_47_48_2    R_1_47_48_3    R_1_47_49_1    R_1_47_49_2    R_1_47_49_3     R_1_47_4_1
     R_1_47_4_2     R_1_47_4_3    R_1_47_50_1    R_1_47_50_2    R_1_47_50_3    R_1_47_51_1    R_1_47_51_2    R_1_47_51_3
    R_1_47_52_1    R_1_47_52_2    R_1_47_52_3    R_1_47_53_1    R_1_47_53_2    R_1_47_53_3    R_1_47_54_1    R_1_47_54_2
    R_1_47_54_3    R_1_47_55_1    R_1_47_55_2    R_1_47_55_3    R_1_47_56_1    R_1_47_56_2    R_1_47_56_3    R_1_47_57_1
    R_1_47_57_2    R_1_47_57_3    R_1_47_58_1    R_1_47_58_2    R_1_47_58_3    R_1_47_59_1    R_1_47_59_2    R_1_47_59_3
     R_1_47_5_1     R_1_47_5_2     R_1_47_5_3    R_1_47_60_1    R_1_47_60_2    R_1_47_60_3    R_1_47_61_1    R_1_47_61_2
    R_1_47_61_3    R_1_47_62_1    R_1_47_62_2    R_1_47_62_3    R_1_47_63_1    R_1_47_63_2    R_1_47_63_3    R_1_47_64_1
    R_1_47_64_2    R_1_47_64_3    R_1_47_65_1    R_1_47_65_2    R_1_47_65_3    R_1_47_66_1    R_1_47_66_2    R_1_47_66_3
    R_1_47_67_1    R_1_47_67_2    R_1_47_67_3    R_1_47_68_1    R_1_47_68_2    R_1_47_68_3    R_1_47_69_1    R_1_47_69_2
    R_1_47_69_3     R_1_47_6_1     R_1_47_6_2     R_1_47_6_3    R_1_47_70_1    R_1_47_70_2    R_1_47_70_3    R_1_47_71_1
    R_1_47_71_2    R_1_47_71_3    R_1_47_72_1    R_1_47_72_2    R_1_47_72_3    R_1_47_73_1    R_1_47_73_2    R_1_47_73_3
    R_1_47_74_1    R_1_47_74_2    R_1_47_74_3    R_1_47_75_1    R_1_47_75_2    R_1_47_75_3    R_1_47_76_1    R_1_47_76_2
    R_1_47_76_3    R_1_47_77_1    R_1_47_77_2    R_1_47_77_3    R_1_47_78_1    R_1_47_78_2    R_1_47_78_3    R_1_47_79_2
    R_1_47_79_3     R_1_47_7_1     R_1_47_7_2     R_1_47_7_3     R_1_47_8_1     R_1_47_8_2     R_1_47_8_3     R_1_47_9_1
     R_1_47_9_2     R_1_47_9_3     R_1_48_0_1     R_1_48_0_2     R_1_48_0_3    R_1_48_10_1    R_1_48_10_2    R_1_48_10_3
    R_1_48_11_1    R_1_48_11_2    R_1_48_11_3    R_1_48_12_1    R_1_48_12_2    R_1_48_12_3    R_1_48_13_1    R_1_48_13_2
    R_1_48_13_3    R_1_48_14_1    R_1_48_14_2    R_1_48_14_3    R_1_48_15_1    R_1_48_15_2    R_1_48_15_3    R_1_48_16_1
    R_1_48_16_2    R_1_48_16_3    R_1_48_17_1    R_1_48_17_2    R_1_48_17_3    R_1_48_18_1    R_1_48_18_2    R_1_48_18_3
    R_1_48_19_1    R_1_48_19_2    R_1_48_19_3     R_1_48_1_1     R_1_48_1_2     R_1_48_1_3    R_1_48_20_1    R_1_48_20_2
    R_1_48_20_3    R_1_48_21_1    R_1_48_21_2    R_1_48_21_3    R_1_48_22_1    R_1_48_22_2    R_1_48_22_3    R_1_48_23_1
    R_1_48_23_2    R_1_48_23_3    R_1_48_24_1    R_1_48_24_2    R_1_48_24_3    R_1_48_25_1    R_1_48_25_2    R_1_48_25_3
    R_1_48_26_1    R_1_48_26_2    R_1_48_26_3    R_1_48_27_1    R_1_48_27_2    R_1_48_27_3    R_1_48_28_1    R_1_48_28_2
    R_1_48_28_3    R_1_48_29_1    R_1_48_29_2    R_1_48_29_3     R_1_48_2_1     R_1_48_2_2     R_1_48_2_3    R_1_48_30_1
    R_1_48_30_2    R_1_48_30_3    R_1_48_31_1    R_1_48_31_2    R_1_48_31_3    R_1_48_32_1    R_1_48_32_2    R_1_48_32_3
    R_1_48_33_1    R_1_48_33_2    R_1_48_33_3    R_1_48_34_1    R_1_48_34_2    R_1_48_34_3    R_1_48_35_1    R_1_48_35_2
    R_1_48_35_3    R_1_48_36_1    R_1_48_36_2    R_1_48_36_3    R_1_48_37_1    R_1_48_37_2    R_1_48_37_3    R_1_48_38_1
    R_1_48_38_2    R_1_48_38_3    R_1_48_39_1    R_1_48_39_2    R_1_48_39_3     R_1_48_3_1     R_1_48_3_2     R_1_48_3_3
    R_1_48_40_1    R_1_48_40_2    R_1_48_40_3    R_1_48_41_1    R_1_48_41_2    R_1_48_41_3    R_1_48_42_1    R_1_48_42_2
    R_1_48_42_3    R_1_48_43_1    R_1_48_43_2    R_1_48_43_3    R_1_48_44_1    R_1_48_44_2    R_1_48_44_3    R_1_48_45_1
    R_1_48_45_2    R_1_48_45_3    R_1_48_46_1    R_1_48_46_2    R_1_48_46_3    R_1_48_47_1    R_1_48_47_2    R_1_48_47_3
    R_1_48_48_1    R_1_48_48_2    R_1_48_48_3    R_1_48_49_1    R_1_48_49_2    R_1_48_49_3     R_1_48_4_1     R_1_48_4_2
     R_1_48_4_3    R_1_48_50_1    R_1_48_50_2    R_1_48_50_3    R_1_48_51_1    R_1_48_51_2    R_1_48_51_3    R_1_48_52_1
    R_1_48_52_2    R_1_48_52_3    R_1_48_53_1    R_1_48_53_2    R_1_48_53_3    R_1_48_54_1    R_1_48_54_2    R_1_48_54_3
    R_1_48_55_1    R_1_48_55_2    R_1_48_55_3    R_1_48_56_1    R_1_48_56_2    R_1_48_56_3    R_1_48_57_1    R_1_48_57_2
    R_1_48_57_3    R_1_48_58_1    R_1_48_58_2    R_1_48_58_3    R_1_48_59_1    R_1_48_59_2    R_1_48_59_3     R_1_48_5_1
     R_1_48_5_2     R_1_48_5_3    R_1_48_60_1    R_1_48_60_2    R_1_48_60_3    R_1_48_61_1    R_1_48_61_2    R_1_48_61_3
    R_1_48_62_1    R_1_48_62_2    R_1_48_62_3    R_1_48_63_1    R_1_48_63_2    R_1_48_63_3    R_1_48_64_1    R_1_48_64_2
    R_1_48_64_3    R_1_48_65_1    R_1_48_65_2    R_1_48_65_3    R_1_48_66_1    R_1_48_66_2    R_1_48_66_3    R_1_48_67_1
    R_1_48_67_2    R_1_48_67_3    R_1_48_68_1    R_1_48_68_2    R_1_48_68_3    R_1_48_69_1    R_1_48_69_2    R_1_48_69_3
     R_1_48_6_1     R_1_48_6_2     R_1_48_6_3    R_1_48_70_1    R_1_48_70_2    R_1_48_70_3    R_1_48_71_1    R_1_48_71_2
    R_1_48_71_3    R_1_48_72_1    R_1_48_72_2    R_1_48_72_3    R_1_48_73_1    R_1_48_73_2    R_1_48_73_3    R_1_48_74_1
    R_1_48_74_2    R_1_48_74_3    R_1_48_75_1    R_1_48_75_2    R_1_48_75_3    R_1_48_76_1    R_1_48_76_2    R_1_48_76_3
    R_1_48_77_1    R_1_48_77_2    R_1_48_77_3    R_1_48_78_1    R_1_48_78_2    R_1_48_78_3    R_1_48_79_2    R_1_48_79_3
     R_1_48_7_1     R_1_48_7_2     R_1_48_7_3     R_1_48_8_1     R_1_48_8_2     R_1_48_8_3     R_1_48_9_1     R_1_48_9_2
     R_1_48_9_3     R_1_49_0_1     R_1_49_0_2     R_1_49_0_3    R_1_49_10_1    R_1_49_10_2    R_1_49_10_3    R_1_49_11_1
    R_1_49_11_2    R_1_49_11_3    R_1_49_12_1    R_1_49_12_2    R_1_49_12_3    R_1_49_13_1    R_1_49_13_2    R_1_49_13_3
    R_1_49_14_1    R_1_49_14_2    R_1_49_14_3    R_1_49_15_1    R_1_49_15_2    R_1_49_15_3    R_1_49_16_1    R_1_49_16_2
    R_1_49_16_3    R_1_49_17_1    R_1_49_17_2    R_1_49_17_3    R_1_49_18_1    R_1_49_18_2    R_1_49_18_3    R_1_49_19_1
    R_1_49_19_2    R_1_49_19_3     R_1_49_1_1     R_1_49_1_2     R_1_49_1_3    R_1_49_20_1    R_1_49_20_2    R_1_49_20_3
    R_1_49_21_1    R_1_49_21_2    R_1_49_21_3    R_1_49_22_1    R_1_49_22_2    R_1_49_22_3    R_1_49_23_1    R_1_49_23_2
    R_1_49_23_3    R_1_49_24_1    R_1_49_24_2    R_1_49_24_3    R_1_49_25_1    R_1_49_25_2    R_1_49_25_3    R_1_49_26_1
    R_1_49_26_2    R_1_49_26_3    R_1_49_27_1    R_1_49_27_2    R_1_49_27_3    R_1_49_28_1    R_1_49_28_2    R_1_49_28_3
    R_1_49_29_1    R_1_49_29_2    R_1_49_29_3     R_1_49_2_1     R_1_49_2_2     R_1_49_2_3    R_1_49_30_1    R_1_49_30_2
    R_1_49_30_3    R_1_49_31_1    R_1_49_31_2    R_1_49_31_3    R_1_49_32_1    R_1_49_32_2    R_1_49_32_3    R_1_49_33_1
    R_1_49_33_2    R_1_49_33_3    R_1_49_34_1    R_1_49_34_2    R_1_49_34_3    R_1_49_35_1    R_1_49_35_2    R_1_49_35_3
    R_1_49_36_1    R_1_49_36_2    R_1_49_36_3    R_1_49_37_1    R_1_49_37_2    R_1_49_37_3    R_1_49_38_1    R_1_49_38_2
    R_1_49_38_3    R_1_49_39_1    R_1_49_39_2    R_1_49_39_3     R_1_49_3_1     R_1_49_3_2     R_1_49_3_3    R_1_49_40_1
    R_1_49_40_2    R_1_49_40_3    R_1_49_41_1    R_1_49_41_2    R_1_49_41_3    R_1_49_42_1    R_1_49_42_2    R_1_49_42_3
    R_1_49_43_1    R_1_49_43_2    R_1_49_43_3    R_1_49_44_1    R_1_49_44_2    R_1_49_44_3    R_1_49_45_1    R_1_49_45_2
    R_1_49_45_3    R_1_49_46_1    R_1_49_46_2    R_1_49_46_3    R_1_49_47_1    R_1_49_47_2    R_1_49_47_3    R_1_49_48_1
    R_1_49_48_2    R_1_49_48_3    R_1_49_49_1    R_1_49_49_2    R_1_49_49_3     R_1_49_4_1     R_1_49_4_2     R_1_49_4_3
    R_1_49_50_1    R_1_49_50_2    R_1_49_50_3    R_1_49_51_1    R_1_49_51_2    R_1_49_51_3    R_1_49_52_1    R_1_49_52_2
    R_1_49_52_3    R_1_49_53_1    R_1_49_53_2    R_1_49_53_3    R_1_49_54_1    R_1_49_54_2    R_1_49_54_3    R_1_49_55_1
    R_1_49_55_2    R_1_49_55_3    R_1_49_56_1    R_1_49_56_2    R_1_49_56_3    R_1_49_57_1    R_1_49_57_2    R_1_49_57_3
    R_1_49_58_1    R_1_49_58_2    R_1_49_58_3    R_1_49_59_1    R_1_49_59_2    R_1_49_59_3     R_1_49_5_1     R_1_49_5_2
     R_1_49_5_3    R_1_49_60_1    R_1_49_60_2    R_1_49_60_3    R_1_49_61_1    R_1_49_61_2    R_1_49_61_3    R_1_49_62_1
    R_1_49_62_2    R_1_49_62_3    R_1_49_63_1    R_1_49_63_2    R_1_49_63_3    R_1_49_64_1    R_1_49_64_2    R_1_49_64_3
    R_1_49_65_1    R_1_49_65_2    R_1_49_65_3    R_1_49_66_1    R_1_49_66_2    R_1_49_66_3    R_1_49_67_1    R_1_49_67_2
    R_1_49_67_3    R_1_49_68_1    R_1_49_68_2    R_1_49_68_3    R_1_49_69_1    R_1_49_69_2    R_1_49_69_3     R_1_49_6_1
     R_1_49_6_2     R_1_49_6_3    R_1_49_70_1    R_1_49_70_2    R_1_49_70_3    R_1_49_71_1    R_1_49_71_2    R_1_49_71_3
    R_1_49_72_1    R_1_49_72_2    R_1_49_72_3    R_1_49_73_1    R_1_49_73_2    R_1_49_73_3    R_1_49_74_1    R_1_49_74_2
    R_1_49_74_3    R_1_49_75_1    R_1_49_75_2    R_1_49_75_3    R_1_49_76_1    R_1_49_76_2    R_1_49_76_3    R_1_49_77_1
    R_1_49_77_2    R_1_49_77_3    R_1_49_78_1    R_1_49_78_2    R_1_49_78_3    R_1_49_79_2    R_1_49_79_3     R_1_49_7_1
     R_1_49_7_2     R_1_49_7_3     R_1_49_8_1     R_1_49_8_2     R_1_49_8_3     R_1_49_9_1     R_1_49_9_2     R_1_49_9_3
     R_1_50_0_1     R_1_50_0_2     R_1_50_0_3    R_1_50_10_1    R_1_50_10_2    R_1_50_10_3    R_1_50_11_1    R_1_50_11_2
    R_1_50_11_3    R_1_50_12_1    R_1_50_12_2    R_1_50_12_3    R_1_50_13_1    R_1_50_13_2    R_1_50_13_3    R_1_50_14_1
    R_1_50_14_2    R_1_50_14_3    R_1_50_15_1    R_1_50_15_2    R_1_50_15_3    R_1_50_16_1    R_1_50_16_2    R_1_50_16_3
    R_1_50_17_1    R_1_50_17_2    R_1_50_17_3    R_1_50_18_1    R_1_50_18_2    R_1_50_18_3    R_1_50_19_1    R_1_50_19_2
    R_1_50_19_3     R_1_50_1_1     R_1_50_1_2     R_1_50_1_3    R_1_50_20_1    R_1_50_20_2    R_1_50_20_3    R_1_50_21_1
    R_1_50_21_2    R_1_50_21_3    R_1_50_22_1    R_1_50_22_2    R_1_50_22_3    R_1_50_23_1    R_1_50_23_2    R_1_50_23_3
    R_1_50_24_1    R_1_50_24_2    R_1_50_24_3    R_1_50_25_1    R_1_50_25_2    R_1_50_25_3    R_1_50_26_1    R_1_50_26_2
    R_1_50_26_3    R_1_50_27_1    R_1_50_27_2    R_1_50_27_3    R_1_50_28_1    R_1_50_28_2    R_1_50_28_3    R_1_50_29_1
    R_1_50_29_2    R_1_50_29_3     R_1_50_2_1     R_1_50_2_2     R_1_50_2_3    R_1_50_30_1    R_1_50_30_2    R_1_50_30_3
    R_1_50_31_1    R_1_50_31_2    R_1_50_31_3    R_1_50_32_1    R_1_50_32_2    R_1_50_32_3    R_1_50_33_1    R_1_50_33_2
    R_1_50_33_3    R_1_50_34_1    R_1_50_34_2    R_1_50_34_3    R_1_50_35_1    R_1_50_35_2    R_1_50_35_3    R_1_50_36_1
    R_1_50_36_2    R_1_50_36_3    R_1_50_37_1    R_1_50_37_2    R_1_50_37_3    R_1_50_38_1    R_1_50_38_2    R_1_50_38_3
    R_1_50_39_1    R_1_50_39_2    R_1_50_39_3     R_1_50_3_1     R_1_50_3_2     R_1_50_3_3    R_1_50_40_1    R_1_50_40_2
    R_1_50_40_3    R_1_50_41_1    R_1_50_41_2    R_1_50_41_3    R_1_50_42_1    R_1_50_42_2    R_1_50_42_3    R_1_50_43_1
    R_1_50_43_2    R_1_50_43_3    R_1_50_44_1    R_1_50_44_2    R_1_50_44_3    R_1_50_45_1    R_1_50_45_2    R_1_50_45_3
    R_1_50_46_1    R_1_50_46_2    R_1_50_46_3    R_1_50_47_1    R_1_50_47_2    R_1_50_47_3    R_1_50_48_1    R_1_50_48_2
    R_1_50_48_3    R_1_50_49_1    R_1_50_49_2    R_1_50_49_3     R_1_50_4_1     R_1_50_4_2     R_1_50_4_3    R_1_50_50_1
    R_1_50_50_2    R_1_50_50_3    R_1_50_51_1    R_1_50_51_2    R_1_50_51_3    R_1_50_52_1    R_1_50_52_2    R_1_50_52_3
    R_1_50_53_1    R_1_50_53_2    R_1_50_53_3    R_1_50_54_1    R_1_50_54_2    R_1_50_54_3    R_1_50_55_1    R_1_50_55_2
    R_1_50_55_3    R_1_50_56_1    R_1_50_56_2    R_1_50_56_3    R_1_50_57_1    R_1_50_57_2    R_1_50_57_3    R_1_50_58_1
    R_1_50_58_2    R_1_50_58_3    R_1_50_59_1    R_1_50_59_2    R_1_50_59_3     R_1_50_5_1     R_1_50_5_2     R_1_50_5_3
    R_1_50_60_1    R_1_50_60_2    R_1_50_60_3    R_1_50_61_1    R_1_50_61_2    R_1_50_61_3    R_1_50_62_1    R_1_50_62_2
    R_1_50_62_3    R_1_50_63_1    R_1_50_63_2    R_1_50_63_3    R_1_50_64_1    R_1_50_64_2    R_1_50_64_3    R_1_50_65_1
    R_1_50_65_2    R_1_50_65_3    R_1_50_66_1    R_1_50_66_2    R_1_50_66_3    R_1_50_67_1    R_1_50_67_2    R_1_50_67_3
    R_1_50_68_1    R_1_50_68_2    R_1_50_68_3    R_1_50_69_1    R_1_50_69_2    R_1_50_69_3     R_1_50_6_1     R_1_50_6_2
     R_1_50_6_3    R_1_50_70_1    R_1_50_70_2    R_1_50_70_3    R_1_50_71_1    R_1_50_71_2    R_1_50_71_3    R_1_50_72_1
    R_1_50_72_2    R_1_50_72_3    R_1_50_73_1    R_1_50_73_2    R_1_50_73_3    R_1_50_74_1    R_1_50_74_2    R_1_50_74_3
    R_1_50_75_1    R_1_50_75_2    R_1_50_75_3    R_1_50_76_1    R_1_50_76_2    R_1_50_76_3    R_1_50_77_1    R_1_50_77_2
    R_1_50_77_3    R_1_50_78_1    R_1_50_78_2    R_1_50_78_3    R_1_50_79_2    R_1_50_79_3     R_1_50_7_1     R_1_50_7_2
     R_1_50_7_3     R_1_50_8_1     R_1_50_8_2     R_1_50_8_3     R_1_50_9_1     R_1_50_9_2     R_1_50_9_3     R_1_51_0_1
     R_1_51_0_2     R_1_51_0_3    R_1_51_10_1    R_1_51_10_2    R_1_51_10_3    R_1_51_11_1    R_1_51_11_2    R_1_51_11_3
    R_1_51_12_1    R_1_51_12_2    R_1_51_12_3    R_1_51_13_1    R_1_51_13_2    R_1_51_13_3    R_1_51_14_1    R_1_51_14_2
    R_1_51_14_3    R_1_51_15_1    R_1_51_15_2    R_1_51_15_3    R_1_51_16_1    R_1_51_16_2    R_1_51_16_3    R_1_51_17_1
    R_1_51_17_2    R_1_51_17_3    R_1_51_18_1    R_1_51_18_2    R_1_51_18_3    R_1_51_19_1    R_1_51_19_2    R_1_51_19_3
     R_1_51_1_1     R_1_51_1_2     R_1_51_1_3    R_1_51_20_1    R_1_51_20_2    R_1_51_20_3    R_1_51_21_1    R_1_51_21_2
    R_1_51_21_3    R_1_51_22_1    R_1_51_22_2    R_1_51_22_3    R_1_51_23_1    R_1_51_23_2    R_1_51_23_3    R_1_51_24_1
    R_1_51_24_2    R_1_51_24_3    R_1_51_25_1    R_1_51_25_2    R_1_51_25_3    R_1_51_26_1    R_1_51_26_2    R_1_51_26_3
    R_1_51_27_1    R_1_51_27_2    R_1_51_27_3    R_1_51_28_1    R_1_51_28_2    R_1_51_28_3    R_1_51_29_1    R_1_51_29_2
    R_1_51_29_3     R_1_51_2_1     R_1_51_2_2     R_1_51_2_3    R_1_51_30_1    R_1_51_30_2    R_1_51_30_3    R_1_51_31_1
    R_1_51_31_2    R_1_51_31_3    R_1_51_32_1    R_1_51_32_2    R_1_51_32_3    R_1_51_33_1    R_1_51_33_2    R_1_51_33_3
    R_1_51_34_1    R_1_51_34_2    R_1_51_34_3    R_1_51_35_1    R_1_51_35_2    R_1_51_35_3    R_1_51_36_1    R_1_51_36_2
    R_1_51_36_3    R_1_51_37_1    R_1_51_37_2    R_1_51_37_3    R_1_51_38_1    R_1_51_38_2    R_1_51_38_3    R_1_51_39_1
    R_1_51_39_2    R_1_51_39_3     R_1_51_3_1     R_1_51_3_2     R_1_51_3_3    R_1_51_40_1    R_1_51_40_2    R_1_51_40_3
    R_1_51_41_1    R_1_51_41_2    R_1_51_41_3    R_1_51_42_1    R_1_51_42_2    R_1_51_42_3    R_1_51_43_1    R_1_51_43_2
    R_1_51_43_3    R_1_51_44_1    R_1_51_44_2    R_1_51_44_3    R_1_51_45_1    R_1_51_45_2    R_1_51_45_3    R_1_51_46_1
    R_1_51_46_2    R_1_51_46_3    R_1_51_47_1    R_1_51_47_2    R_1_51_47_3    R_1_51_48_1    R_1_51_48_2    R_1_51_48_3
    R_1_51_49_1    R_1_51_49_2    R_1_51_49_3     R_1_51_4_1     R_1_51_4_2     R_1_51_4_3    R_1_51_50_1    R_1_51_50_2
    R_1_51_50_3    R_1_51_51_1    R_1_51_51_2    R_1_51_51_3    R_1_51_52_1    R_1_51_52_2    R_1_51_52_3    R_1_51_53_1
    R_1_51_53_2    R_1_51_53_3    R_1_51_54_1    R_1_51_54_2    R_1_51_54_3    R_1_51_55_1    R_1_51_55_2    R_1_51_55_3
    R_1_51_56_1    R_1_51_56_2    R_1_51_56_3    R_1_51_57_1    R_1_51_57_2    R_1_51_57_3    R_1_51_58_1    R_1_51_58_2
    R_1_51_58_3    R_1_51_59_1    R_1_51_59_2    R_1_51_59_3     R_1_51_5_1     R_1_51_5_2     R_1_51_5_3    R_1_51_60_1
    R_1_51_60_2    R_1_51_60_3    R_1_51_61_1    R_1_51_61_2    R_1_51_61_3    R_1_51_62_1    R_1_51_62_2    R_1_51_62_3
    R_1_51_63_1    R_1_51_63_2    R_1_51_63_3    R_1_51_64_1    R_1_51_64_2    R_1_51_64_3    R_1_51_65_1    R_1_51_65_2
    R_1_51_65_3    R_1_51_66_1    R_1_51_66_2    R_1_51_66_3    R_1_51_67_1    R_1_51_67_2    R_1_51_67_3    R_1_51_68_1
    R_1_51_68_2    R_1_51_68_3    R_1_51_69_1    R_1_51_69_2    R_1_51_69_3     R_1_51_6_1     R_1_51_6_2     R_1_51_6_3
    R_1_51_70_1    R_1_51_70_2    R_1_51_70_3    R_1_51_71_1    R_1_51_71_2    R_1_51_71_3    R_1_51_72_1    R_1_51_72_2
    R_1_51_72_3    R_1_51_73_1    R_1_51_73_2    R_1_51_73_3    R_1_51_74_1    R_1_51_74_2    R_1_51_74_3    R_1_51_75_1
    R_1_51_75_2    R_1_51_75_3    R_1_51_76_1    R_1_51_76_2    R_1_51_76_3    R_1_51_77_1    R_1_51_77_2    R_1_51_77_3
    R_1_51_78_1    R_1_51_78_2    R_1_51_78_3    R_1_51_79_2    R_1_51_79_3     R_1_51_7_1     R_1_51_7_2     R_1_51_7_3
     R_1_51_8_1     R_1_51_8_2     R_1_51_8_3     R_1_51_9_1     R_1_51_9_2     R_1_51_9_3     R_1_52_0_1     R_1_52_0_2
     R_1_52_0_3    R_1_52_10_1    R_1_52_10_2    R_1_52_10_3    R_1_52_11_1    R_1_52_11_2    R_1_52_11_3    R_1_52_12_1
    R_1_52_12_2    R_1_52_12_3    R_1_52_13_1    R_1_52_13_2    R_1_52_13_3    R_1_52_14_1    R_1_52_14_2    R_1_52_14_3
    R_1_52_15_1    R_1_52_15_2    R_1_52_15_3    R_1_52_16_1    R_1_52_16_2    R_1_52_16_3    R_1_52_17_1    R_1_52_17_2
    R_1_52_17_3    R_1_52_18_1    R_1_52_18_2    R_1_52_18_3    R_1_52_19_1    R_1_52_19_2    R_1_52_19_3     R_1_52_1_1
     R_1_52_1_2     R_1_52_1_3    R_1_52_20_1    R_1_52_20_2    R_1_52_20_3    R_1_52_21_1    R_1_52_21_2    R_1_52_21_3
    R_1_52_22_1    R_1_52_22_2    R_1_52_22_3    R_1_52_23_1    R_1_52_23_2    R_1_52_23_3    R_1_52_24_1    R_1_52_24_2
    R_1_52_24_3    R_1_52_25_1    R_1_52_25_2    R_1_52_25_3    R_1_52_26_1    R_1_52_26_2    R_1_52_26_3    R_1_52_27_1
    R_1_52_27_2    R_1_52_27_3    R_1_52_28_1    R_1_52_28_2    R_1_52_28_3    R_1_52_29_1    R_1_52_29_2    R_1_52_29_3
     R_1_52_2_1     R_1_52_2_2     R_1_52_2_3    R_1_52_30_1    R_1_52_30_2    R_1_52_30_3    R_1_52_31_1    R_1_52_31_2
    R_1_52_31_3    R_1_52_32_1    R_1_52_32_2    R_1_52_32_3    R_1_52_33_1    R_1_52_33_2    R_1_52_33_3    R_1_52_34_1
    R_1_52_34_2    R_1_52_34_3    R_1_52_35_1    R_1_52_35_2    R_1_52_35_3    R_1_52_36_1    R_1_52_36_2    R_1_52_36_3
    R_1_52_37_1    R_1_52_37_2    R_1_52_37_3    R_1_52_38_1    R_1_52_38_2    R_1_52_38_3    R_1_52_39_1    R_1_52_39_2
    R_1_52_39_3     R_1_52_3_1     R_1_52_3_2     R_1_52_3_3    R_1_52_40_1    R_1_52_40_2    R_1_52_40_3    R_1_52_41_1
    R_1_52_41_2    R_1_52_41_3    R_1_52_42_1    R_1_52_42_2    R_1_52_42_3    R_1_52_43_1    R_1_52_43_2    R_1_52_43_3
    R_1_52_44_1    R_1_52_44_2    R_1_52_44_3    R_1_52_45_1    R_1_52_45_2    R_1_52_45_3    R_1_52_46_1    R_1_52_46_2
    R_1_52_46_3    R_1_52_47_1    R_1_52_47_2    R_1_52_47_3    R_1_52_48_1    R_1_52_48_2    R_1_52_48_3    R_1_52_49_1
    R_1_52_49_2    R_1_52_49_3     R_1_52_4_1     R_1_52_4_2     R_1_52_4_3    R_1_52_50_1    R_1_52_50_2    R_1_52_50_3
    R_1_52_51_1    R_1_52_51_2    R_1_52_51_3    R_1_52_52_1    R_1_52_52_2    R_1_52_52_3    R_1_52_53_1    R_1_52_53_2
    R_1_52_53_3    R_1_52_54_1    R_1_52_54_2    R_1_52_54_3    R_1_52_55_1    R_1_52_55_2    R_1_52_55_3    R_1_52_56_1
    R_1_52_56_2    R_1_52_56_3    R_1_52_57_1    R_1_52_57_2    R_1_52_57_3    R_1_52_58_1    R_1_52_58_2    R_1_52_58_3
    R_1_52_59_1    R_1_52_59_2    R_1_52_59_3     R_1_52_5_1     R_1_52_5_2     R_1_52_5_3    R_1_52_60_1    R_1_52_60_2
    R_1_52_60_3    R_1_52_61_1    R_1_52_61_2    R_1_52_61_3    R_1_52_62_1    R_1_52_62_2    R_1_52_62_3    R_1_52_63_1
    R_1_52_63_2    R_1_52_63_3    R_1_52_64_1    R_1_52_64_2    R_1_52_64_3    R_1_52_65_1    R_1_52_65_2    R_1_52_65_3
    R_1_52_66_1    R_1_52_66_2    R_1_52_66_3    R_1_52_67_1    R_1_52_67_2    R_1_52_67_3    R_1_52_68_1    R_1_52_68_2
    R_1_52_68_3    R_1_52_69_1    R_1_52_69_2    R_1_52_69_3     R_1_52_6_1     R_1_52_6_2     R_1_52_6_3    R_1_52_70_1
    R_1_52_70_2    R_1_52_70_3    R_1_52_71_1    R_1_52_71_2    R_1_52_71_3    R_1_52_72_1    R_1_52_72_2    R_1_52_72_3
    R_1_52_73_1    R_1_52_73_2    R_1_52_73_3    R_1_52_74_1    R_1_52_74_2    R_1_52_74_3    R_1_52_75_1    R_1_52_75_2
    R_1_52_75_3    R_1_52_76_1    R_1_52_76_2    R_1_52_76_3    R_1_52_77_1    R_1_52_77_2    R_1_52_77_3    R_1_52_78_1
    R_1_52_78_2    R_1_52_78_3    R_1_52_79_2    R_1_52_79_3     R_1_52_7_1     R_1_52_7_2     R_1_52_7_3     R_1_52_8_1
     R_1_52_8_2     R_1_52_8_3     R_1_52_9_1     R_1_52_9_2     R_1_52_9_3     R_1_53_0_1     R_1_53_0_2     R_1_53_0_3
    R_1_53_10_1    R_1_53_10_2    R_1_53_10_3    R_1_53_11_1    R_1_53_11_2    R_1_53_11_3    R_1_53_12_1    R_1_53_12_2
    R_1_53_12_3    R_1_53_13_1    R_1_53_13_2    R_1_53_13_3    R_1_53_14_1    R_1_53_14_2    R_1_53_14_3    R_1_53_15_1
    R_1_53_15_2    R_1_53_15_3    R_1_53_16_1    R_1_53_16_2    R_1_53_16_3    R_1_53_17_1    R_1_53_17_2    R_1_53_17_3
    R_1_53_18_1    R_1_53_18_2    R_1_53_18_3    R_1_53_19_1    R_1_53_19_2    R_1_53_19_3     R_1_53_1_1     R_1_53_1_2
     R_1_53_1_3    R_1_53_20_1    R_1_53_20_2    R_1_53_20_3    R_1_53_21_1    R_1_53_21_2    R_1_53_21_3    R_1_53_22_1
    R_1_53_22_2    R_1_53_22_3    R_1_53_23_1    R_1_53_23_2    R_1_53_23_3    R_1_53_24_1    R_1_53_24_2    R_1_53_24_3
    R_1_53_25_1    R_1_53_25_2    R_1_53_25_3    R_1_53_26_1    R_1_53_26_2    R_1_53_26_3    R_1_53_27_1    R_1_53_27_2
    R_1_53_27_3    R_1_53_28_1    R_1_53_28_2    R_1_53_28_3    R_1_53_29_1    R_1_53_29_2    R_1_53_29_3     R_1_53_2_1
     R_1_53_2_2     R_1_53_2_3    R_1_53_30_1    R_1_53_30_2    R_1_53_30_3    R_1_53_31_1    R_1_53_31_2    R_1_53_31_3
    R_1_53_32_1    R_1_53_32_2    R_1_53_32_3    R_1_53_33_1    R_1_53_33_2    R_1_53_33_3    R_1_53_34_1    R_1_53_34_2
    R_1_53_34_3    R_1_53_35_1    R_1_53_35_2    R_1_53_35_3    R_1_53_36_1    R_1_53_36_2    R_1_53_36_3    R_1_53_37_1
    R_1_53_37_2    R_1_53_37_3    R_1_53_38_1    R_1_53_38_2    R_1_53_38_3    R_1_53_39_1    R_1_53_39_2    R_1_53_39_3
     R_1_53_3_1     R_1_53_3_2     R_1_53_3_3    R_1_53_40_1    R_1_53_40_2    R_1_53_40_3    R_1_53_41_1    R_1_53_41_2
    R_1_53_41_3    R_1_53_42_1    R_1_53_42_2    R_1_53_42_3    R_1_53_43_1    R_1_53_43_2    R_1_53_43_3    R_1_53_44_1
    R_1_53_44_2    R_1_53_44_3    R_1_53_45_1    R_1_53_45_2    R_1_53_45_3    R_1_53_46_1    R_1_53_46_2    R_1_53_46_3
    R_1_53_47_1    R_1_53_47_2    R_1_53_47_3    R_1_53_48_1    R_1_53_48_2    R_1_53_48_3    R_1_53_49_1    R_1_53_49_2
    R_1_53_49_3     R_1_53_4_1     R_1_53_4_2     R_1_53_4_3    R_1_53_50_1    R_1_53_50_2    R_1_53_50_3    R_1_53_51_1
    R_1_53_51_2    R_1_53_51_3    R_1_53_52_1    R_1_53_52_2    R_1_53_52_3    R_1_53_53_1    R_1_53_53_2    R_1_53_53_3
    R_1_53_54_1    R_1_53_54_2    R_1_53_54_3    R_1_53_55_1    R_1_53_55_2    R_1_53_55_3    R_1_53_56_1    R_1_53_56_2
    R_1_53_56_3    R_1_53_57_1    R_1_53_57_2    R_1_53_57_3    R_1_53_58_1    R_1_53_58_2    R_1_53_58_3    R_1_53_59_1
    R_1_53_59_2    R_1_53_59_3     R_1_53_5_1     R_1_53_5_2     R_1_53_5_3    R_1_53_60_1    R_1_53_60_2    R_1_53_60_3
    R_1_53_61_1    R_1_53_61_2    R_1_53_61_3    R_1_53_62_1    R_1_53_62_2    R_1_53_62_3    R_1_53_63_1    R_1_53_63_2
    R_1_53_63_3    R_1_53_64_1    R_1_53_64_2    R_1_53_64_3    R_1_53_65_1    R_1_53_65_2    R_1_53_65_3    R_1_53_66_1
    R_1_53_66_2    R_1_53_66_3    R_1_53_67_1    R_1_53_67_2    R_1_53_67_3    R_1_53_68_1    R_1_53_68_2    R_1_53_68_3
    R_1_53_69_1    R_1_53_69_2    R_1_53_69_3     R_1_53_6_1     R_1_53_6_2     R_1_53_6_3    R_1_53_70_1    R_1_53_70_2
    R_1_53_70_3    R_1_53_71_1    R_1_53_71_2    R_1_53_71_3    R_1_53_72_1    R_1_53_72_2    R_1_53_72_3    R_1_53_73_1
    R_1_53_73_2    R_1_53_73_3    R_1_53_74_1    R_1_53_74_2    R_1_53_74_3    R_1_53_75_1    R_1_53_75_2    R_1_53_75_3
    R_1_53_76_1    R_1_53_76_2    R_1_53_76_3    R_1_53_77_1    R_1_53_77_2    R_1_53_77_3    R_1_53_78_1    R_1_53_78_2
    R_1_53_78_3    R_1_53_79_2    R_1_53_79_3     R_1_53_7_1     R_1_53_7_2     R_1_53_7_3     R_1_53_8_1     R_1_53_8_2
     R_1_53_8_3     R_1_53_9_1     R_1_53_9_2     R_1_53_9_3     R_1_54_0_1     R_1_54_0_2     R_1_54_0_3    R_1_54_10_1
    R_1_54_10_2    R_1_54_10_3    R_1_54_11_1    R_1_54_11_2    R_1_54_11_3    R_1_54_12_1    R_1_54_12_2    R_1_54_12_3
    R_1_54_13_1    R_1_54_13_2    R_1_54_13_3    R_1_54_14_1    R_1_54_14_2    R_1_54_14_3    R_1_54_15_1    R_1_54_15_2
    R_1_54_15_3    R_1_54_16_1    R_1_54_16_2    R_1_54_16_3    R_1_54_17_1    R_1_54_17_2    R_1_54_17_3    R_1_54_18_1
    R_1_54_18_2    R_1_54_18_3    R_1_54_19_1    R_1_54_19_2    R_1_54_19_3     R_1_54_1_1     R_1_54_1_2     R_1_54_1_3
    R_1_54_20_1    R_1_54_20_2    R_1_54_20_3    R_1_54_21_1    R_1_54_21_2    R_1_54_21_3    R_1_54_22_1    R_1_54_22_2
    R_1_54_22_3    R_1_54_23_1    R_1_54_23_2    R_1_54_23_3    R_1_54_24_1    R_1_54_24_2    R_1_54_24_3    R_1_54_25_1
    R_1_54_25_2    R_1_54_25_3    R_1_54_26_1    R_1_54_26_2    R_1_54_26_3    R_1_54_27_1    R_1_54_27_2    R_1_54_27_3
    R_1_54_28_1    R_1_54_28_2    R_1_54_28_3    R_1_54_29_1    R_1_54_29_2    R_1_54_29_3     R_1_54_2_1     R_1_54_2_2
     R_1_54_2_3    R_1_54_30_1    R_1_54_30_2    R_1_54_30_3    R_1_54_31_1    R_1_54_31_2    R_1_54_31_3    R_1_54_32_1
    R_1_54_32_2    R_1_54_32_3    R_1_54_33_1    R_1_54_33_2    R_1_54_33_3    R_1_54_34_1    R_1_54_34_2    R_1_54_34_3
    R_1_54_35_1    R_1_54_35_2    R_1_54_35_3    R_1_54_36_1    R_1_54_36_2    R_1_54_36_3    R_1_54_37_1    R_1_54_37_2
    R_1_54_37_3    R_1_54_38_1    R_1_54_38_2    R_1_54_38_3    R_1_54_39_1    R_1_54_39_2    R_1_54_39_3     R_1_54_3_1
     R_1_54_3_2     R_1_54_3_3    R_1_54_40_1    R_1_54_40_2    R_1_54_40_3    R_1_54_41_1    R_1_54_41_2    R_1_54_41_3
    R_1_54_42_1    R_1_54_42_2    R_1_54_42_3    R_1_54_43_1    R_1_54_43_2    R_1_54_43_3    R_1_54_44_1    R_1_54_44_2
    R_1_54_44_3    R_1_54_45_1    R_1_54_45_2    R_1_54_45_3    R_1_54_46_1    R_1_54_46_2    R_1_54_46_3    R_1_54_47_1
    R_1_54_47_2    R_1_54_47_3    R_1_54_48_1    R_1_54_48_2    R_1_54_48_3    R_1_54_49_1    R_1_54_49_2    R_1_54_49_3
     R_1_54_4_1     R_1_54_4_2     R_1_54_4_3    R_1_54_50_1    R_1_54_50_2    R_1_54_50_3    R_1_54_51_1    R_1_54_51_2
    R_1_54_51_3    R_1_54_52_1    R_1_54_52_2    R_1_54_52_3    R_1_54_53_1    R_1_54_53_2    R_1_54_53_3    R_1_54_54_1
    R_1_54_54_2    R_1_54_54_3    R_1_54_55_1    R_1_54_55_2    R_1_54_55_3    R_1_54_56_1    R_1_54_56_2    R_1_54_56_3
    R_1_54_57_1    R_1_54_57_2    R_1_54_57_3    R_1_54_58_1    R_1_54_58_2    R_1_54_58_3    R_1_54_59_1    R_1_54_59_2
    R_1_54_59_3     R_1_54_5_1     R_1_54_5_2     R_1_54_5_3    R_1_54_60_1    R_1_54_60_2    R_1_54_60_3    R_1_54_61_1
    R_1_54_61_2    R_1_54_61_3    R_1_54_62_1    R_1_54_62_2    R_1_54_62_3    R_1_54_63_1    R_1_54_63_2    R_1_54_63_3
    R_1_54_64_1    R_1_54_64_2    R_1_54_64_3    R_1_54_65_1    R_1_54_65_2    R_1_54_65_3    R_1_54_66_1    R_1_54_66_2
    R_1_54_66_3    R_1_54_67_1    R_1_54_67_2    R_1_54_67_3    R_1_54_68_1    R_1_54_68_2    R_1_54_68_3    R_1_54_69_1
    R_1_54_69_2    R_1_54_69_3     R_1_54_6_1     R_1_54_6_2     R_1_54_6_3    R_1_54_70_1    R_1_54_70_2    R_1_54_70_3
    R_1_54_71_1    R_1_54_71_2    R_1_54_71_3    R_1_54_72_1    R_1_54_72_2    R_1_54_72_3    R_1_54_73_1    R_1_54_73_2
    R_1_54_73_3    R_1_54_74_1    R_1_54_74_2    R_1_54_74_3    R_1_54_75_1    R_1_54_75_2    R_1_54_75_3    R_1_54_76_1
[...]
              0              0              0              0              0              0              0              0
              0              0              0              0              0              0              0              0
              0              0              0              0              0              0              0              0
              0              0              0              0              0              0              0              0
              0              0              0              0              0              0              0              0
              0              0              0              0              0              0              0              0
              0              0              0              0              0              0              0              0
              0              0              0              0              0              0              0              0
              0              0              0              0              0              0              0              0
              0              0              0              0              0              0              0              0
              0              0              0              0              0              0              0              0
              0              0              0              0              0              0              0              0
              0              0              0              0              0              0              0              0
              0              0              0              0              0              0              0              0
              0              0              0              0              0              0              0              0
              0              0              0              0              0              0              0              0
              0              0              0              0              0              0              0              0
              0              0              0              0              0              0              0              0
              0              0              0              0              0              0              0              0
              0              0              0              0              0              0              0              0
              0              0              0              0              0              0              0              0
              0              0              0              0              0              0              0              0
              0              0              0              0              0              0              0              0
              0              0              0              0              0              0              0              0
              0              0              0              0              0              0              0              0
              0              0              0              0              0              0              0              0
              0              0              0              0              0              0              0              0
              0              0              0              0              0              0              0              0
              0              0              0              0              0              0              0              0
              0              0              0              0              0              0              0              0
              0              0              0              0              0              0              0              0
              0              0              0              0              0              0              0              0
              0              0              0              0              0              0              0              0
              0              0              0              0              0              0              0              0
              0              0              0              0              0              0              0              0
              0              0              0              0              0              0              0              0
              0              0              0              0              0              0              0              0
              0              0              0              0              0              0              0              0
              0              0              0              0              0              0              0              0
              0              0              0              0              0              0              0              0
              0              0              0              0              0              0              0              0
              0              0              0              0              0              0              0              0
              0              0              0              0              0              0              0              0
              0              0              0              0              0              0              0              0
              0              0              0              0              0              0              0              0
              0              0              0              0              0              0              0              0
              0              0              0              0              0              0              0              0
              0              0              0              0              0              0              0              0
              0              0              0              0              0              0              0              0
              0              0              0              0              0              0              0              0
              0              0              0              0              0              0              0              0
              0              0              0              0              0              0              0              0
              0              0              0              0              0              0              0              0
              0              0              0              0              0              0              0              0
              0              0              0              0              0              0              0              0
              0              0              0              0              0              0              0              0
              0              0              0              0              0              0              0              0
              0              0              0              0              0              0              0              0
              0              0              0              0              0              0              0              0
              0              0              0              0              0              0              0              0
              0              0              0              0              0              0              0              0
              0              0              0              0              0              0              0              0
              0              0              0              0              0              0              0              0
              0              0              0              0              0              0              0              0
              0              0              0              0              0              0              0              0
              0              0              0              0              0              0              0              0
              0              0              0              0              0              0              0              0
              0              0              0              0              0              0              0              0
              0              0              0              0              0              0              0              0
              0              0              0              0              0              0              0              0
              0              0              0              0              0              0              0              0
              0              0              0              0              0              0              0              0
              0              0              0              0              0              0              0              0
              0              0              0              0              0              0              0              0
              0              0              0              0              0              0              0              0
              0              0              0              0              0              0              0              0
              0              0              0              0              0              0              0              0
              0              0              0              0              0              0              0              0
              0              0              0              0              0              0              0              0
              0              0              0              0              0              0              0              0
              0              0              0              0              0              0              0              0
              0              0              0              0              0              0              0              0
              0              0              0              0              0              0              0              0
              0              0              0              0              0              0              0              0
              0              0              0              0              0              0              0              0
              0              0              0              0              0              0              0              0
              0              0              0              0              0              0              0              0
              0              0              0              0              0              0              0              0
              0              0              0              0              0              0              0              0
              0              0              0              0              0              0              0              0
              0              0              0              0              0              0              0              0
              0              0              0              0              0              0              0              0
              0              0              0              0              0              0              0              0
              0              0              0              0              0              0              0              0
              0              0              0              0              0              0              0              0
              0              0              0              0              0              0              0              0
              0              0              0              0              0              0              0              0
              0              0              0              0              0              0              0              0
              0              0              0              0              0              0              0              0
              0              0              0              0              0              0              0              0
              0              0              0              0              0              0              0              0
              0              0              0              0              0              0              0              0
              0              0              0              0              0              0              0              0
              0              0              0              0              0              0              0              0
              0              0              0              0              0              0              0              0
              0              0              0              0              0              0              0              0
              0              0              0              0              0              0              0              0
              0              0              0              0              0              0              0              0
              0              0              0              0              0              0              0              0
              0              0              0              0              0              0              0              0
              0              0              0              0              0              0              0              0
              0              0              0              0              0              0              0              0
              0              0              0              0              0              0              0              0
              0              0              0              0              0              0              0              0
              0              0              0              0              0              0              0              0
              0              0              0              0              0              0              0              0
              0              0              0              0              0              0              0              0
              0              0

------------------------------------------------------------

***** Solution Summary *****
	Number Successful Steps Taken:		1
	Number Failed Steps Attempted:		0
	Number Jacobians Evaluated:		3
	Number Iteration Matrix Factorizations:	0
	Number Linear Solves:			3
	Number Failed Linear Solves:		0
	Number Residual Evaluations:		4
	Number Nonlinear Convergence Failures:	0
	Total Residual Load Time:		0.0110612 seconds
	Total Jacobian Load Time:		0.00831437 seconds
	Total Linear Solution Time:		0.28226 seconds


***** Total Simulation Solvers Run Time: 0.522119 seconds
***** Total Elapsed Run Time:            1.28668 seconds
*****
***** End of Xyce(TM) Simulation
*****

Timing summary of processor 0
                 Stats                   Count       CPU Time              Wall Time
---------------------------------------- ----- --------------------- ---------------------
Xyce                                         1        1.233 (100.0%)        1.443 (100.0%)
  Analysis                                   1        0.475 (38.54%)        0.522 (36.19%)
    DC Sweep                                 1        0.378 (30.63%)        0.424 (29.36%)
      Solve                                  1        0.286 (23.21%)        0.315 (21.84%)
        Residual                             4        0.009 ( 0.73%)        0.011 ( 0.77%)
        Jacobian                             3        0.007 ( 0.60%)        0.008 ( 0.58%)
        Linear Solve                         3        0.258 (20.96%)        0.282 (19.57%)
      Successful Step                        1        0.090 ( 7.30%)        0.106 ( 7.37%)
  Netlist Import                             1        0.453 (36.73%)        0.480 (33.28%)
    Parse Context                            1        0.075 ( 6.07%)        0.082 ( 5.69%)
    Distribute Devices                       1        0.263 (21.33%)        0.274 (19.00%)
    Verify Devices                           1        0.000 ( 0.00%)        0.000 (<0.01%)
    Instantiate                              1        0.049 ( 3.96%)        0.053 ( 3.66%)
  Late Initialization                        1        0.277 (22.49%)        0.281 (19.49%)
    Global Indices                           1        0.107 ( 8.71%)        0.107 ( 7.45%)
  Setup Matrix Structure                     1        0.036 ( 2.91%)        0.036 ( 2.49%)


Timing summary of 4 processors
                                                     CPU Time              CPU Time              CPU Time              Wall Time             Wall Time             Wall Time
                 Stats                   Count   Sum (% of System)     Min (% of System)     Max (% of System)     Sum (% of System)     Min (% of System)     Max (% of System)
---------------------------------------- ----- --------------------- --------------------- --------------------- --------------------- --------------------- ---------------------
Xyce                                         4        5.079 (100.0%)        1.233 (24.27%)        1.291 (25.41%)        5.760 (100.0%)        1.438 (24.97%)        1.443 (25.05%)
  Analysis                                   4        2.013 (39.63%)        0.475 ( 9.35%)        0.513 (10.11%)        2.084 (36.18%)        0.520 ( 9.03%)        0.522 ( 9.06%)
    DC Sweep                                 4        1.621 (31.91%)        0.378 ( 7.43%)        0.416 ( 8.19%)        1.689 (29.32%)        0.422 ( 7.32%)        0.424 ( 7.35%)
      Solve                                  4        1.212 (23.86%)        0.286 ( 5.63%)        0.310 ( 6.10%)        1.259 (21.85%)        0.314 ( 5.46%)        0.315 ( 5.47%)
        Residual                            16        0.033 ( 0.66%)        0.007 ( 0.14%)        0.009 ( 0.18%)        0.044 ( 0.77%)        0.011 ( 0.19%)        0.011 ( 0.19%)
        Jacobian                            12        0.028 ( 0.54%)        0.005 ( 0.11%)        0.008 ( 0.17%)        0.034 ( 0.58%)        0.008 ( 0.14%)        0.008 ( 0.15%)
        Linear Solve                        12        1.104 (21.73%)        0.258 ( 5.09%)        0.282 ( 5.56%)        1.129 (19.60%)        0.282 ( 4.90%)        0.282 ( 4.90%)
      Successful Step                        4        0.402 ( 7.92%)        0.090 ( 1.77%)        0.104 ( 2.06%)        0.422 ( 7.33%)        0.105 ( 1.83%)        0.106 ( 1.85%)
  Netlist Import                             4        1.832 (36.08%)        0.453 ( 8.91%)        0.469 ( 9.23%)        1.920 (33.34%)        0.480 ( 8.33%)        0.480 ( 8.34%)
    Parse Context                            4        0.321 ( 6.31%)        0.075 ( 1.47%)        0.082 ( 1.61%)        0.328 ( 5.69%)        0.082 ( 1.42%)        0.082 ( 1.42%)
    Distribute Devices                       4        1.050 (20.68%)        0.258 ( 5.08%)        0.266 ( 5.24%)        1.091 (18.93%)        0.271 ( 4.71%)        0.274 ( 4.76%)
    Verify Devices                           4        0.000 (<0.01%)        0.000 ( 0.00%)        0.000 (<0.01%)        0.000 (<0.01%)        0.000 (<0.01%)        0.000 (<0.01%)
    Instantiate                              4        0.224 ( 4.42%)        0.049 ( 0.96%)        0.063 ( 1.24%)        0.236 ( 4.10%)        0.053 ( 0.92%)        0.064 ( 1.11%)
  Late Initialization                        4        1.113 (21.91%)        0.277 ( 5.46%)        0.279 ( 5.50%)        1.125 (19.53%)        0.281 ( 4.88%)        0.282 ( 4.89%)
    Global Indices                           4        0.433 ( 8.52%)        0.107 ( 2.11%)        0.108 ( 2.14%)        0.433 ( 7.51%)        0.107 ( 1.87%)        0.108 ( 1.88%)
  Setup Matrix Structure                     4        0.144 ( 2.83%)        0.036 ( 0.71%)        0.036 ( 0.71%)        0.144 ( 2.50%)        0.036 ( 0.62%)        0.036 ( 0.62%)

