
*****
***** Welcome to the Xyce(TM) Parallel Electronic Simulator
*****
***** This is version Xyce Release 6.12-opensource
***** Date: Wed Jul 15 18:25:10 EDT 2020


***** Executing netlist RC_steady.cir

***** Reading and parsing netlist...
***** Setting up topology...

***** Device Count Summary ...
       I level 1 (Independent Current Source)  25
       R level 1 (Resistor)                   195
       V level 1 (Independent Voltage Source)   1
       ------------------------------------------
       Total Devices                          221
***** Setting up matrix structure...
***** Number of Unknowns = 77
***** Initializing...

------------------------------------------------------------
Operating point information:
Number of Resistor models: 1
          name R level 1 (Resistor)
          type                
         level               1
           TNOM             27
           DEFW          1e-05
         NARROW              0
              R              1
            TC1              0
            TCE              0
            TC2              0

            RSH              0

Number of Resistor instances: 56
          name       R_2_0_3_1      R_2_0_3_2      R_2_0_3_3      R_2_0_4_2      R_2_0_4_3      R_2_1_0_1      R_2_1_0_2
      R_2_1_0_3      R_2_1_1_1      R_2_1_1_2      R_2_1_1_3      R_2_1_2_1      R_2_1_2_2      R_2_1_2_3      R_2_1_3_1
      R_2_1_3_2      R_2_1_3_3      R_2_1_4_2      R_2_1_4_3      R_2_2_0_1      R_2_2_0_2      R_2_2_0_3      R_2_2_1_1
      R_2_2_1_2      R_2_2_1_3      R_2_2_2_1      R_2_2_2_2      R_2_2_2_3      R_2_2_3_1      R_2_2_3_2      R_2_2_3_3
      R_2_2_4_2      R_2_2_4_3      R_2_3_0_1      R_2_3_0_2      R_2_3_0_3      R_2_3_1_1      R_2_3_1_2      R_2_3_1_3
      R_2_3_2_1      R_2_3_2_2      R_2_3_2_3      R_2_3_3_1      R_2_3_3_2      R_2_3_3_3      R_2_3_4_2      R_2_3_4_3
      R_2_4_0_1      R_2_4_0_3      R_2_4_1_1      R_2_4_1_3      R_2_4_2_1      R_2_4_2_3      R_2_4_3_1      R_2_4_3_3
      R_2_4_4_3
         model R level 1 (Resistor)R level 1 (Resistor)R level 1 (Resistor)R level 1 (Resistor)R level 1 (Resistor)R level 1 (Resistor)R level 1 (Resistor)
R level 1 (Resistor)R level 1 (Resistor)R level 1 (Resistor)R level 1 (Resistor)R level 1 (Resistor)R level 1 (Resistor)R level 1 (Resistor)R level 1 (Resistor)
R level 1 (Resistor)R level 1 (Resistor)R level 1 (Resistor)R level 1 (Resistor)R level 1 (Resistor)R level 1 (Resistor)R level 1 (Resistor)R level 1 (Resistor)
R level 1 (Resistor)R level 1 (Resistor)R level 1 (Resistor)R level 1 (Resistor)R level 1 (Resistor)R level 1 (Resistor)R level 1 (Resistor)R level 1 (Resistor)
R level 1 (Resistor)R level 1 (Resistor)R level 1 (Resistor)R level 1 (Resistor)R level 1 (Resistor)R level 1 (Resistor)R level 1 (Resistor)R level 1 (Resistor)
R level 1 (Resistor)R level 1 (Resistor)R level 1 (Resistor)R level 1 (Resistor)R level 1 (Resistor)R level 1 (Resistor)R level 1 (Resistor)R level 1 (Resistor)
R level 1 (Resistor)R level 1 (Resistor)R level 1 (Resistor)R level 1 (Resistor)R level 1 (Resistor)R level 1 (Resistor)R level 1 (Resistor)R level 1 (Resistor)
R level 1 (Resistor)
            TCE              0              0              0              0              0              0              0
              0              0              0              0              0              0              0              0
              0              0              0              0              0              0              0              0
              0              0              0              0              0              0              0              0
              0              0              0              0              0              0              0              0
              0              0              0              0              0              0              0              0
              0              0              0              0              0              0              0              0
              0
            TC2              0              0              0              0              0              0              0
              0              0              0              0              0              0              0              0
              0              0              0              0              0              0              0              0
              0              0              0              0              0              0              0              0
              0              0              0              0              0              0              0              0
              0              0              0              0              0              0              0              0
              0              0              0              0              0              0              0              0
              0
            TC1              0              0              0              0              0              0              0
              0              0              0              0              0              0              0              0
              0              0              0              0              0              0              0              0
              0              0              0              0              0              0              0              0
              0              0              0              0              0              0              0              0
              0              0              0              0              0              0              0              0
              0              0              0              0              0              0              0              0
              0
           TEMP             27             27             27             27             27             27             27
             27             27             27             27             27             27             27             27
             27             27             27             27             27             27             27             27
             27             27             27             27             27             27             27             27
             27             27             27             27             27             27             27             27
             27             27             27             27             27             27             27             27
             27             27             27             27             27             27             27             27
             27
              R          31.25          12500          2e+09          12500          2e+09          31.25          12500
          2e+09          31.25          12500          2e+09          31.25          12500          2e+09          31.25
          12500          2e+09          12500          2e+09          31.25          12500          2e+09          31.25
          12500          2e+09          31.25          12500          2e+09          31.25          12500          2e+09
          12500          2e+09          31.25          12500          2e+09          31.25          12500          2e+09
          31.25          12500          2e+09          31.25          12500          2e+09          12500          2e+09
          31.25          2e+09          31.25          2e+09          31.25          2e+09          31.25          2e+09
          2e+09
              M              1              1              1              1              1              1              1
              1              1              1              1              1              1              1              1
              1              1              1              1              1              1              1              1
              1              1              1              1              1              1              1              1
              1              1              1              1              1              1              1              1
              1              1              1              1              1              1              1              1
              1              1              1              1              1              1              1              1
              1
          DTEMP              0              0              0              0              0              0              0
              0              0              0              0              0              0              0              0
              0              0              0              0              0              0              0              0
              0              0              0              0              0              0              0              0
              0              0              0              0              0              0              0              0
              0              0              0              0              0              0              0              0
              0              0              0              0              0              0              0              0
              0
              W          1e-05          1e-05          1e-05          1e-05          1e-05          1e-05          1e-05
          1e-05          1e-05          1e-05          1e-05          1e-05          1e-05          1e-05          1e-05
          1e-05          1e-05          1e-05          1e-05          1e-05          1e-05          1e-05          1e-05
          1e-05          1e-05          1e-05          1e-05          1e-05          1e-05          1e-05          1e-05
          1e-05          1e-05          1e-05          1e-05          1e-05          1e-05          1e-05          1e-05
          1e-05          1e-05          1e-05          1e-05          1e-05          1e-05          1e-05          1e-05
          1e-05          1e-05          1e-05          1e-05          1e-05          1e-05          1e-05          1e-05
          1e-05
              L              0              0              0              0              0              0              0
              0              0              0              0              0              0              0              0
              0              0              0              0              0              0              0              0
              0              0              0              0              0              0              0              0
              0              0              0              0              0              0              0              0
              0              0              0              0              0              0              0              0
              0              0              0              0              0              0              0              0
              0

------------------------------------------------------------

***** Solution Summary *****
	Number Successful Steps Taken:		1
	Number Failed Steps Attempted:		0
	Number Jacobians Evaluated:		3
	Number Iteration Matrix Factorizations:	0
	Number Linear Solves:			3
	Number Failed Linear Solves:		0
	Number Residual Evaluations:		4
	Number Nonlinear Convergence Failures:	0
	Total Residual Load Time:		0.000235081 seconds
	Total Jacobian Load Time:		0.000235796 seconds
	Total Linear Solution Time:		0.000864029 seconds


***** Total Simulation Solvers Run Time: 0.00962591 seconds
***** Total Elapsed Run Time:            0.0221241 seconds
*****
***** End of Xyce(TM) Simulation
*****

Timing summary of processor 0
                 Stats                   Count       CPU Time              Wall Time
---------------------------------------- ----- --------------------- ---------------------
Xyce                                         1        0.048 (100.0%)        0.910 (100.0%)
  Analysis                                   1        0.005 (10.90%)        0.010 ( 1.05%)
    DC Sweep                                 1        0.005 ( 9.57%)        0.009 ( 0.98%)
      Solve                                  1        0.003 ( 6.51%)        0.003 ( 0.34%)
        Residual                             4        0.000 ( 0.50%)        0.000 ( 0.03%)
        Jacobian                             3        0.000 ( 0.49%)        0.000 ( 0.03%)
        Linear Solve                         3        0.001 ( 1.83%)        0.001 ( 0.10%)
      Successful Step                        1        0.001 ( 2.07%)        0.005 ( 0.56%)
  Netlist Import                             1        0.003 ( 6.92%)        0.005 ( 0.50%)
    Parse Context                            1        0.001 ( 1.61%)        0.001 ( 0.09%)
    Distribute Devices                       1        0.001 ( 2.09%)        0.002 ( 0.19%)
    Verify Devices                           1        0.000 ( 0.02%)        0.000 (<0.01%)
    Instantiate                              1        0.000 ( 0.27%)        0.000 ( 0.03%)
  Late Initialization                        1        0.007 (14.27%)        0.007 ( 0.75%)
    Global Indices                           1        0.001 ( 2.35%)        0.001 ( 0.12%)
  Setup Matrix Structure                     1        0.002 ( 3.27%)        0.002 ( 0.17%)


Timing summary of 4 processors
                                                     CPU Time              CPU Time              CPU Time              Wall Time             Wall Time             Wall Time
                 Stats                   Count   Sum (% of System)     Min (% of System)     Max (% of System)     Sum (% of System)     Min (% of System)     Max (% of System)
---------------------------------------- ----- --------------------- --------------------- --------------------- --------------------- --------------------- ---------------------
Xyce                                         4        0.203 (100.0%)        0.048 (23.53%)        0.053 (26.15%)        3.636 (100.0%)        0.908 (24.97%)        0.911 (25.05%)
  Analysis                                   4        0.030 (14.81%)        0.005 ( 2.55%)        0.009 ( 4.35%)        0.036 ( 1.00%)        0.009 ( 0.24%)        0.010 ( 0.26%)
    DC Sweep                                 4        0.028 (13.56%)        0.005 ( 2.24%)        0.008 ( 4.04%)        0.034 ( 0.93%)        0.008 ( 0.23%)        0.009 ( 0.25%)
      Solve                                  4        0.011 ( 5.28%)        0.002 ( 1.09%)        0.003 ( 1.52%)        0.012 ( 0.34%)        0.003 ( 0.09%)        0.003 ( 0.09%)
        Residual                            16        0.001 ( 0.40%)        0.000 ( 0.08%)        0.000 ( 0.12%)        0.001 ( 0.03%)        0.000 (<0.01%)        0.000 (<0.01%)
        Jacobian                            12        0.001 ( 0.38%)        0.000 ( 0.07%)        0.000 ( 0.12%)        0.001 ( 0.03%)        0.000 (<0.01%)        0.000 (<0.01%)
        Linear Solve                        12        0.003 ( 1.67%)        0.001 ( 0.41%)        0.001 ( 0.43%)        0.003 ( 0.10%)        0.001 ( 0.02%)        0.001 ( 0.02%)
      Successful Step                        4        0.015 ( 7.38%)        0.001 ( 0.49%)        0.005 ( 2.30%)        0.019 ( 0.52%)        0.005 ( 0.13%)        0.005 ( 0.14%)
  Netlist Import                             4        0.017 ( 8.15%)        0.003 ( 1.62%)        0.004 ( 2.20%)        0.018 ( 0.50%)        0.005 ( 0.12%)        0.005 ( 0.13%)
    Parse Context                            4        0.003 ( 1.59%)        0.001 ( 0.38%)        0.001 ( 0.41%)        0.003 ( 0.09%)        0.001 ( 0.02%)        0.001 ( 0.02%)
    Distribute Devices                       4        0.006 ( 2.98%)        0.001 ( 0.49%)        0.002 ( 0.85%)        0.007 ( 0.19%)        0.002 ( 0.05%)        0.002 ( 0.05%)
    Verify Devices                           4        0.000 ( 0.01%)        0.000 (<0.01%)        0.000 (<0.01%)        0.000 (<0.01%)        0.000 (<0.01%)        0.000 (<0.01%)
    Instantiate                              4        0.001 ( 0.57%)        0.000 ( 0.06%)        0.000 ( 0.19%)        0.001 ( 0.03%)        0.000 (<0.01%)        0.000 ( 0.01%)
  Late Initialization                        4        0.027 (13.44%)        0.007 ( 3.34%)        0.007 ( 3.37%)        0.027 ( 0.75%)        0.007 ( 0.19%)        0.007 ( 0.19%)
    Global Indices                           4        0.005 ( 2.28%)        0.001 ( 0.55%)        0.001 ( 0.58%)        0.005 ( 0.13%)        0.001 ( 0.03%)        0.001 ( 0.03%)
  Setup Matrix Structure                     4        0.006 ( 3.09%)        0.002 ( 0.76%)        0.002 ( 0.78%)        0.006 ( 0.17%)        0.002 ( 0.04%)        0.002 ( 0.04%)

