
*****
***** Welcome to the Xyce(TM) Parallel Electronic Simulator
*****
***** This is version Xyce Release 6.12-opensource
***** Date: Fri Jul 10 02:11:59 EDT 2020


***** Executing netlist RC_steady.cir

***** Reading and parsing netlist...
***** Setting up topology...

***** Device Count Summary ...
       R level 1 (Resistor)                   196096
       R level 3 (Resistor)                   196096
       V level 1 (Independent Voltage Source)      1
       ---------------------------------------------
       Total Devices                          392193
***** Setting up matrix structure...
***** Number of Unknowns = 327170
***** Initializing...

Netlist warning: Numerically singular matrix found by Amesos, returning zero
 solution to nonlinear solver!
Netlist warning: Numerically singular matrix found by Amesos, returning zero
 solution to nonlinear solver!
Netlist warning: Numerically singular matrix found by Amesos, returning zero
 solution to nonlinear solver!

***** Solution Summary *****
	Number Successful Steps Taken:		0
	Number Failed Steps Attempted:		1
	Number Jacobians Evaluated:		3
	Number Iteration Matrix Factorizations:	0
	Number Linear Solves:			3
	Number Failed Linear Solves:		3
	Number Residual Evaluations:		8
	Number Nonlinear Convergence Failures:	1
	Total Residual Load Time:		0.261979 seconds
	Total Jacobian Load Time:		0.258517 seconds
	Total Linear Solution Time:		0 seconds

	Failed DC sweep steps:		
		DC Step # 1

***** Total Simulation Solvers Run Time: 9.34418 seconds
***** Total Elapsed Run Time:            24.8523 seconds
*****
***** End of Xyce(TM) Simulation
*****

Timing summary of processor 0
                 Stats                   Count       CPU Time              Wall Time
---------------------------------------- ----- --------------------- ---------------------
Xyce                                         1       15.441 (100.0%)       25.024 (100.0%)
  Analysis                                   1        5.185 (33.58%)        9.344 (37.34%)
    DC Sweep                                 1        3.317 (21.48%)        4.234 (16.92%)
      Solve                                  1        3.292 (21.32%)        4.175 (16.69%)
        Residual                             8        0.156 ( 1.01%)        0.262 ( 1.05%)
        Jacobian                             3        0.114 ( 0.74%)        0.259 ( 1.03%)
        Linear Solve                         3        1.780 (11.53%)        1.937 ( 7.74%)
      Failed Steps                           1        0.000 ( 0.00%)        0.000 (<0.01%)
  Netlist Import                             1        4.649 (30.11%)        5.406 (21.60%)
    Parse Context                            1        0.721 ( 4.67%)        0.855 ( 3.42%)
    Distribute Devices                       1        2.657 (17.21%)        2.997 (11.98%)
    Verify Devices                           1        0.000 (<0.01%)        0.000 (<0.01%)
    Instantiate                              1        0.664 ( 4.30%)        0.700 ( 2.80%)
  Late Initialization                        1        5.538 (35.86%)       10.055 (40.18%)
    Global Indices                           1        2.349 (15.21%)        2.969 (11.86%)
  Setup Matrix Structure                     1        0.744 ( 4.82%)        1.144 ( 4.57%)


Timing summary of 4 processors
                                                     CPU Time              CPU Time              CPU Time              Wall Time             Wall Time             Wall Time
                 Stats                   Count   Sum (% of System)     Min (% of System)     Max (% of System)     Sum (% of System)     Min (% of System)     Max (% of System)
---------------------------------------- ----- --------------------- --------------------- --------------------- --------------------- --------------------- ---------------------
Xyce                                         4       55.128 (100.0%)       12.572 (22.80%)       15.441 (28.01%)     1:40.099 (100.0%)       25.024 (25.00%)       25.027 (25.00%)
  Analysis                                   4       17.097 (31.01%)        3.939 ( 7.15%)        5.185 ( 9.41%)       37.601 (37.56%)        9.344 ( 9.33%)        9.449 ( 9.44%)
    DC Sweep                                 4        9.717 (17.63%)        2.044 ( 3.71%)        3.317 ( 6.02%)       16.938 (16.92%)        4.233 ( 4.23%)        4.237 ( 4.23%)
      Solve                                  4        9.573 (17.36%)        2.014 ( 3.65%)        3.292 ( 5.97%)       16.702 (16.69%)        4.175 ( 4.17%)        4.176 ( 4.17%)
        Residual                            32        0.537 ( 0.97%)        0.116 ( 0.21%)        0.156 ( 0.28%)        1.016 ( 1.01%)        0.236 ( 0.24%)        0.267 ( 0.27%)
        Jacobian                            12        0.600 ( 1.09%)        0.103 ( 0.19%)        0.210 ( 0.38%)        1.051 ( 1.05%)        0.253 ( 0.25%)        0.272 ( 0.27%)
        Linear Solve                        12        3.219 ( 5.84%)        0.464 ( 0.84%)        1.780 ( 3.23%)        7.723 ( 7.72%)        1.919 ( 1.92%)        1.941 ( 1.94%)
      Failed Steps                           4        0.000 (<0.01%)        0.000 ( 0.00%)        0.000 (<0.01%)        0.000 (<0.01%)        0.000 (<0.01%)        0.000 (<0.01%)
  Netlist Import                             4       15.023 (27.25%)        3.422 ( 6.21%)        4.649 ( 8.43%)       21.626 (21.60%)        5.406 ( 5.40%)        5.406 ( 5.40%)
    Parse Context                            4        1.613 ( 2.93%)        0.279 ( 0.51%)        0.721 ( 1.31%)        3.422 ( 3.42%)        0.855 ( 0.85%)        0.855 ( 0.85%)
    Distribute Devices                       4        8.586 (15.57%)        1.966 ( 3.57%)        2.657 ( 4.82%)       12.055 (12.04%)        2.997 ( 2.99%)        3.028 ( 3.02%)
    Verify Devices                           4        0.000 (<0.01%)        0.000 (<0.01%)        0.000 (<0.01%)        0.000 (<0.01%)        0.000 (<0.01%)        0.000 (<0.01%)
    Instantiate                              4        2.335 ( 4.24%)        0.514 ( 0.93%)        0.664 ( 1.20%)        2.537 ( 2.53%)        0.561 ( 0.56%)        0.700 ( 0.70%)
  Late Initialization                        4       22.724 (41.22%)        5.095 ( 9.24%)        6.212 (11.27%)       40.000 (39.96%)        9.949 ( 9.94%)       10.055 (10.04%)
    Global Indices                           4        9.709 (17.61%)        2.046 ( 3.71%)        2.840 ( 5.15%)       11.999 (11.99%)        2.961 ( 2.96%)        3.042 ( 3.04%)
  Setup Matrix Structure                     4        3.270 ( 5.93%)        0.664 ( 1.20%)        0.937 ( 1.70%)        4.578 ( 4.57%)        1.144 ( 1.14%)        1.145 ( 1.14%)

