
*****
***** Welcome to the Xyce(TM) Parallel Electronic Simulator
*****
***** This is version Xyce Release 6.12-opensource
***** Date: Tue Aug 11 20:44:23 EDT 2020


***** Executing netlist RC_transient.cir

***** Reading and parsing netlist...
***** Setting up topology...

***** Device Count Summary ...
       C level 1 (Capacitor)                   51200
       I level 1 (Independent Current Source)  25600
       R level 1 (Resistor)                   152960
       V level 1 (Independent Voltage Source)      1
       ---------------------------------------------
       Total Devices                          229761
***** Setting up matrix structure...
***** Number of Unknowns = 51202
***** Initializing...

***** Beginning DC Operating Point Calculation...

***** Beginning Transient Calculation...

***** Percent complete: 1.02419 %
***** Current system time: Tue Aug 11 20:44:29 2020
***** Estimated time to completion:  3 min., 15 sec.

***** Percent complete: 2.91126 %
***** Current system time: Tue Aug 11 20:44:30 2020
***** Estimated time to completion: 55 sec.

***** Percent complete: 4.79833 %
***** Current system time: Tue Aug 11 20:44:30 2020
***** Estimated time to completion: 35 sec.

***** Percent complete: 6.6854 %
***** Current system time: Tue Aug 11 20:44:30 2020
***** Estimated time to completion: 26 sec.

***** Percent complete: 10.4595 %
***** Current system time: Tue Aug 11 20:44:31 2020
***** Estimated time to completion: 18 sec.

***** Percent complete: 18.0078 %
***** Current system time: Tue Aug 11 20:44:31 2020
***** Estimated time to completion: 11 sec.

***** Percent complete: 28.0078 %
***** Current system time: Tue Aug 11 20:44:32 2020
***** Estimated time to completion:  7 sec.

***** Percent complete: 38.0078 %
***** Current system time: Tue Aug 11 20:44:32 2020
***** Estimated time to completion:  5 sec.

***** Percent complete: 48.0078 %
***** Current system time: Tue Aug 11 20:44:33 2020
***** Estimated time to completion:  4 sec.

***** Percent complete: 58.0078 %
***** Current system time: Tue Aug 11 20:44:33 2020
***** Estimated time to completion:  3 sec.

***** Percent complete: 68.0078 %
***** Current system time: Tue Aug 11 20:44:34 2020
***** Estimated time to completion:  2 sec.

***** Percent complete: 78.0078 %
***** Current system time: Tue Aug 11 20:44:34 2020
***** Estimated time to completion:  1 sec.

***** Percent complete: 88.0078 %
***** Current system time: Tue Aug 11 20:44:35 2020
***** Estimated time to completion:  0 sec.

***** Percent complete: 98.0078 %
***** Current system time: Tue Aug 11 20:44:35 2020
***** Estimated time to completion:  0 sec.

***** Problem read in and set up time: 5.28392 seconds
 ***** DCOP time: 0.495819 seconds.  Breakdown follows:
	Number Successful Steps Taken:		1
	Number Failed Steps Attempted:		0
	Number Jacobians Evaluated:		3
	Number Iteration Matrix Factorizations:	0
	Number Linear Solves:			3
	Number Failed Linear Solves:		0
	Number Linear Solver Iterations:	71
	Number Residual Evaluations:		4
	Number Nonlinear Convergence Failures:	0
	Total Residual Load Time:		0.0519047 seconds
	Total Jacobian Load Time:		0.0437064 seconds
	Total Linear Solution Time:		0.213577 seconds

 ***** Transient Stepping time: 6.47209 seconds.  Breakdown follows:
	Number Successful Steps Taken:		18
	Number Failed Steps Attempted:		1
	Number Jacobians Evaluated:		24
	Number Iteration Matrix Factorizations:	0
	Number Linear Solves:			24
	Number Failed Linear Solves:		0
	Number Linear Solver Iterations:	779
	Number Residual Evaluations:		43
	Number Nonlinear Convergence Failures:	0
	Total Residual Load Time:		0.217021 seconds
	Total Jacobian Load Time:		0.255718 seconds
	Total Linear Solution Time:		1.14557 seconds


***** Solution Summary *****
	Number Successful Steps Taken:		19
	Number Failed Steps Attempted:		1
	Number Jacobians Evaluated:		27
	Number Iteration Matrix Factorizations:	0
	Number Linear Solves:			27
	Number Failed Linear Solves:		0
	Number Linear Solver Iterations:	850
	Number Residual Evaluations:		47
	Number Nonlinear Convergence Failures:	0
	Total Residual Load Time:		0.268925 seconds
	Total Jacobian Load Time:		0.299424 seconds
	Total Linear Solution Time:		1.35915 seconds


***** Total Simulation Solvers Run Time: 7.45854 seconds
***** Total Elapsed Run Time:            12.3159 seconds
*****
***** End of Xyce(TM) Simulation
*****

Timing summary of processor 0
                 Stats                   Count       CPU Time              Wall Time
---------------------------------------- ----- --------------------- ---------------------
Xyce                                         1       11.955 (100.0%)       12.470 (100.0%)
  Analysis                                   1        7.231 (60.48%)        7.458 (59.81%)
    Transient                                1        6.809 (56.95%)        7.032 (56.39%)
      Nonlinear Solve                       20        1.903 (15.92%)        1.978 (15.86%)
        Residual                            47        0.250 ( 2.09%)        0.269 ( 2.16%)
        Jacobian                            27        0.284 ( 2.37%)        0.299 ( 2.40%)
        Linear Solve                        27        1.321 (11.05%)        1.359 (10.90%)
      Successful DCOP Steps                  1        0.117 ( 0.98%)        0.133 ( 1.07%)
      Successful Step                       18        4.716 (39.45%)        4.792 (38.43%)
      Failed Steps                           1        0.000 (<0.01%)        0.000 (<0.01%)
  Netlist Import                             1        3.169 (26.51%)        3.306 (26.51%)
    Parse Context                            1        0.364 ( 3.05%)        0.392 ( 3.14%)
    Distribute Devices                       1        2.172 (18.17%)        2.224 (17.83%)
    Verify Devices                           1        0.000 (<0.01%)        0.000 (<0.01%)
    Instantiate                              1        0.380 ( 3.18%)        0.423 ( 3.39%)
  Late Initialization                        1        1.519 (12.71%)        1.538 (12.33%)
    Global Indices                           1        0.686 ( 5.74%)        0.687 ( 5.51%)
  Setup Matrix Structure                     1        0.246 ( 2.06%)        0.247 ( 1.98%)


Timing summary of 4 processors
                                                     CPU Time              CPU Time              CPU Time              Wall Time             Wall Time             Wall Time
                 Stats                   Count   Sum (% of System)     Min (% of System)     Max (% of System)     Sum (% of System)     Min (% of System)     Max (% of System)
---------------------------------------- ----- --------------------- --------------------- --------------------- --------------------- --------------------- ---------------------
Xyce                                         4       47.700 (100.0%)       11.862 (24.87%)       11.988 (25.13%)       49.613 (100.0%)       12.380 (24.95%)       12.471 (25.14%)
  Analysis                                   4       28.790 (60.36%)        7.153 (15.00%)        7.241 (15.18%)       29.577 (59.61%)        7.372 (14.86%)        7.458 (15.03%)
    Transient                                4       27.092 (56.80%)        6.727 (14.10%)        6.817 (14.29%)       27.866 (56.17%)        6.945 (14.00%)        7.032 (14.17%)
      Nonlinear Solve                       80        7.558 (15.85%)        1.878 ( 3.94%)        1.903 ( 3.99%)        7.906 (15.94%)        1.976 ( 3.98%)        1.978 ( 3.99%)
        Residual                           188        0.995 ( 2.09%)        0.246 ( 0.52%)        0.251 ( 0.53%)        1.072 ( 2.16%)        0.267 ( 0.54%)        0.269 ( 0.54%)
        Jacobian                           108        1.108 ( 2.32%)        0.273 ( 0.57%)        0.284 ( 0.59%)        1.188 ( 2.39%)        0.295 ( 0.59%)        0.299 ( 0.60%)
        Linear Solve                       108        5.261 (11.03%)        1.309 ( 2.75%)        1.321 ( 2.77%)        5.446 (10.98%)        1.359 ( 2.74%)        1.363 ( 2.75%)
      Successful DCOP Steps                  4        0.509 ( 1.07%)        0.117 ( 0.25%)        0.131 ( 0.28%)        0.533 ( 1.07%)        0.133 ( 0.27%)        0.133 ( 0.27%)
      Successful Step                       72       17.370 (36.41%)        4.190 ( 8.78%)        4.716 ( 9.89%)       17.705 (35.69%)        4.303 ( 8.67%)        4.792 ( 9.66%)
      Failed Steps                           4        0.000 (<0.01%)        0.000 (<0.01%)        0.000 (<0.01%)        0.000 (<0.01%)        0.000 (<0.01%)        0.000 (<0.01%)
  Netlist Import                             4       12.685 (26.59%)        3.163 ( 6.63%)        3.185 ( 6.68%)       13.224 (26.66%)        3.306 ( 6.66%)        3.306 ( 6.66%)
    Parse Context                            4        1.538 ( 3.22%)        0.364 ( 0.76%)        0.392 ( 0.82%)        1.566 ( 3.16%)        0.392 ( 0.79%)        0.392 ( 0.79%)
    Distribute Devices                       4        8.638 (18.11%)        2.148 ( 4.50%)        2.172 ( 4.55%)        8.879 (17.90%)        2.217 ( 4.47%)        2.224 ( 4.48%)
    Verify Devices                           4        0.000 (<0.01%)        0.000 (<0.01%)        0.000 (<0.01%)        0.000 (<0.01%)        0.000 (<0.01%)        0.000 (<0.01%)
    Instantiate                              4        1.570 ( 3.29%)        0.380 ( 0.80%)        0.400 ( 0.84%)        1.724 ( 3.47%)        0.422 ( 0.85%)        0.443 ( 0.89%)
  Late Initialization                        4        6.056 (12.70%)        1.501 ( 3.15%)        1.520 ( 3.19%)        6.144 (12.38%)        1.535 ( 3.09%)        1.538 ( 3.10%)
    Global Indices                           4        2.741 ( 5.75%)        0.682 ( 1.43%)        0.687 ( 1.44%)        2.749 ( 5.54%)        0.686 ( 1.38%)        0.689 ( 1.39%)
  Setup Matrix Structure                     4        0.977 ( 2.05%)        0.240 ( 0.50%)        0.246 ( 0.52%)        0.989 ( 1.99%)        0.247 ( 0.50%)        0.247 ( 0.50%)

