
*****
***** Welcome to the Xyce(TM) Parallel Electronic Simulator
*****
***** This is version Xyce Release 6.12-opensource
***** Date: Mon Jul 27 20:31:30 EDT 2020


***** Executing netlist RC_transient.cir

***** Reading and parsing netlist...
Netlist error: No analysis specified.
Simulation aborted due to error.  There are 0 MSG_FATAL errors and 1 MSG_ERROR
 errors
*** Xyce Abort ***
