
*****
***** Welcome to the Xyce(TM) Parallel Electronic Simulator
*****
***** This is version Xyce Release 6.12-opensource
***** Date: Mon Jul 06 02:37:26 EDT 2020


***** Executing netlist RC_transient.cir

***** Reading and parsing netlist...
***** Setting up topology...

***** Device Count Summary ...
       C level 1 (Capacitor)                  12800
       I level 1 (Independent Current Source)  6400
       R level 1 (Resistor)                   38080
       V level 1 (Independent Voltage Source)     1
       --------------------------------------------
       Total Devices                          57281
***** Setting up matrix structure...
***** Number of Unknowns = 12802
***** Initializing...

***** Beginning DC Operating Point Calculation...

***** Beginning Transient Calculation...

***** Percent complete: 1.04206 %
***** Current system time: Mon Jul  6 02:37:27 2020
***** Estimated time to completion:  1 min.,  4 sec.

***** Percent complete: 2.99348 %
***** Current system time: Mon Jul  6 02:37:27 2020
***** Estimated time to completion: 17 sec.

***** Percent complete: 4.9449 %
***** Current system time: Mon Jul  6 02:37:27 2020
***** Estimated time to completion: 10 sec.

***** Percent complete: 6.89632 %
***** Current system time: Mon Jul  6 02:37:27 2020
***** Estimated time to completion:  8 sec.

***** Percent complete: 10.7992 %
***** Current system time: Mon Jul  6 02:37:27 2020
***** Estimated time to completion:  5 sec.

***** Percent complete: 18.6048 %
***** Current system time: Mon Jul  6 02:37:27 2020
***** Estimated time to completion:  3 sec.

***** Percent complete: 28.6048 %
***** Current system time: Mon Jul  6 02:37:28 2020
***** Estimated time to completion:  2 sec.

***** Percent complete: 38.6048 %
***** Current system time: Mon Jul  6 02:37:28 2020
***** Estimated time to completion:  1 sec.

***** Percent complete: 48.6048 %
***** Current system time: Mon Jul  6 02:37:28 2020
***** Estimated time to completion:  1 sec.

***** Percent complete: 58.6048 %
***** Current system time: Mon Jul  6 02:37:28 2020
***** Estimated time to completion:  0 sec.

***** Percent complete: 68.6048 %
***** Current system time: Mon Jul  6 02:37:28 2020
***** Estimated time to completion:  0 sec.

***** Percent complete: 78.6048 %
***** Current system time: Mon Jul  6 02:37:28 2020
***** Estimated time to completion:  0 sec.

***** Percent complete: 88.6048 %
***** Current system time: Mon Jul  6 02:37:28 2020
***** Estimated time to completion:  0 sec.

***** Percent complete: 98.6048 %
***** Current system time: Mon Jul  6 02:37:29 2020
***** Estimated time to completion:  0 sec.

***** Problem read in and set up time: 1.15127 seconds
 ***** DCOP time: 0.203978 seconds.  Breakdown follows:
	Number Successful Steps Taken:		1
	Number Failed Steps Attempted:		0
	Number Jacobians Evaluated:		3
	Number Iteration Matrix Factorizations:	0
	Number Linear Solves:			3
	Number Failed Linear Solves:		0
	Number Linear Solver Iterations:	44
	Number Residual Evaluations:		4
	Number Nonlinear Convergence Failures:	0
	Total Residual Load Time:		0.0160069 seconds
	Total Jacobian Load Time:		0.0109079 seconds
	Total Linear Solution Time:		0.123873 seconds

 ***** Transient Stepping time: 1.71855 seconds.  Breakdown follows:
	Number Successful Steps Taken:		18
	Number Failed Steps Attempted:		1
	Number Jacobians Evaluated:		24
	Number Iteration Matrix Factorizations:	0
	Number Linear Solves:			24
	Number Failed Linear Solves:		0
	Number Linear Solver Iterations:	472
	Number Residual Evaluations:		43
	Number Nonlinear Convergence Failures:	0
	Total Residual Load Time:		0.108303 seconds
	Total Jacobian Load Time:		0.0666752 seconds
	Total Linear Solution Time:		0.324193 seconds


***** Solution Summary *****
	Number Successful Steps Taken:		19
	Number Failed Steps Attempted:		1
	Number Jacobians Evaluated:		27
	Number Iteration Matrix Factorizations:	0
	Number Linear Solves:			27
	Number Failed Linear Solves:		0
	Number Linear Solver Iterations:	516
	Number Residual Evaluations:		47
	Number Nonlinear Convergence Failures:	0
	Total Residual Load Time:		0.12431 seconds
	Total Jacobian Load Time:		0.0775831 seconds
	Total Linear Solution Time:		0.448066 seconds


***** Total Simulation Solvers Run Time: 2.04742 seconds
***** Total Elapsed Run Time:            3.08969 seconds
*****
***** End of Xyce(TM) Simulation
*****

Timing summary of processor 0
                 Stats                   Count       CPU Time              Wall Time
---------------------------------------- ----- --------------------- ---------------------
Xyce                                         1        3.023 (100.0%)        3.253 (100.0%)
  Analysis                                   1        1.988 (65.76%)        2.047 (62.94%)
    Transient                                1        1.881 (62.22%)        1.938 (59.59%)
      Nonlinear Solve                       20        0.649 (21.46%)        0.666 (20.47%)
        Residual                            47        0.122 ( 4.05%)        0.124 ( 3.83%)
        Jacobian                            27        0.075 ( 2.47%)        0.078 ( 2.39%)
        Linear Solve                        27        0.436 (14.43%)        0.448 (13.78%)
      Successful DCOP Steps                  1        0.030 ( 0.98%)        0.037 ( 1.12%)
      Successful Step                       18        1.187 (39.26%)        1.208 (37.13%)
      Failed Steps                           1        0.000 (<0.01%)        0.000 (<0.01%)
  Netlist Import                             1        0.630 (20.86%)        0.657 (20.19%)
    Parse Context                            1        0.093 ( 3.07%)        0.098 ( 3.01%)
    Distribute Devices                       1        0.360 (11.91%)        0.377 (11.59%)
    Verify Devices                           1        0.000 (<0.01%)        0.000 (<0.01%)
    Instantiate                              1        0.077 ( 2.55%)        0.079 ( 2.43%)
  Late Initialization                        1        0.373 (12.35%)        0.382 (11.76%)
    Global Indices                           1        0.156 ( 5.15%)        0.156 ( 4.79%)
  Setup Matrix Structure                     1        0.058 ( 1.91%)        0.060 ( 1.84%)


Timing summary of 4 processors
                                                     CPU Time              CPU Time              CPU Time              Wall Time             Wall Time             Wall Time
                 Stats                   Count   Sum (% of System)     Min (% of System)     Max (% of System)     Sum (% of System)     Min (% of System)     Max (% of System)
---------------------------------------- ----- --------------------- --------------------- --------------------- --------------------- --------------------- ---------------------
Xyce                                         4       12.066 (100.0%)        3.005 (24.91%)        3.032 (25.13%)       12.939 (100.0%)        3.228 (24.95%)        3.253 (25.14%)
  Analysis                                   4        7.944 (65.84%)        1.971 (16.34%)        1.996 (16.54%)        8.118 (62.74%)        2.022 (15.63%)        2.047 (15.82%)
    Transient                                4        7.518 (62.30%)        1.865 (15.46%)        1.889 (15.65%)        7.684 (59.39%)        1.915 (14.80%)        1.938 (14.98%)
      Nonlinear Solve                       80        2.534 (21.00%)        0.623 ( 5.16%)        0.649 ( 5.38%)        2.610 (20.17%)        0.638 ( 4.93%)        0.666 ( 5.15%)
        Residual                           188        0.440 ( 3.64%)        0.098 ( 0.81%)        0.122 ( 1.01%)        0.447 ( 3.46%)        0.098 ( 0.76%)        0.124 ( 0.96%)
        Jacobian                           108        0.303 ( 2.51%)        0.074 ( 0.62%)        0.077 ( 0.64%)        0.314 ( 2.43%)        0.078 ( 0.60%)        0.080 ( 0.62%)
        Linear Solve                       108        1.733 (14.36%)        0.427 ( 3.53%)        0.436 ( 3.62%)        1.789 (13.82%)        0.445 ( 3.44%)        0.448 ( 3.46%)
      Successful DCOP Steps                  4        0.138 ( 1.15%)        0.030 ( 0.24%)        0.037 ( 0.30%)        0.146 ( 1.13%)        0.037 ( 0.28%)        0.037 ( 0.28%)
      Successful Step                       72        4.383 (36.32%)        1.057 ( 8.76%)        1.187 ( 9.84%)        4.447 (34.37%)        1.078 ( 8.33%)        1.208 ( 9.33%)
      Failed Steps                           4        0.000 (<0.01%)        0.000 (<0.01%)        0.000 (<0.01%)        0.000 (<0.01%)        0.000 (<0.01%)        0.000 (<0.01%)
  Netlist Import                             4        2.514 (20.83%)        0.622 ( 5.16%)        0.632 ( 5.24%)        2.627 (20.30%)        0.657 ( 5.08%)        0.657 ( 5.08%)
    Parse Context                            4        0.385 ( 3.19%)        0.093 ( 0.77%)        0.098 ( 0.81%)        0.392 ( 3.03%)        0.098 ( 0.76%)        0.098 ( 0.76%)
    Distribute Devices                       4        1.441 (11.94%)        0.357 ( 2.96%)        0.363 ( 3.01%)        1.505 (11.63%)        0.375 ( 2.90%)        0.377 ( 2.91%)
    Verify Devices                           4        0.000 (<0.01%)        0.000 (<0.01%)        0.000 (<0.01%)        0.000 (<0.01%)        0.000 (<0.01%)        0.000 (<0.01%)
    Instantiate                              4        0.385 ( 3.19%)        0.077 ( 0.64%)        0.110 ( 0.91%)        0.409 ( 3.16%)        0.079 ( 0.61%)        0.119 ( 0.92%)
  Late Initialization                        4        1.477 (12.24%)        0.365 ( 3.03%)        0.373 ( 3.09%)        1.533 (11.85%)        0.382 ( 2.96%)        0.384 ( 2.97%)
    Global Indices                           4        0.626 ( 5.19%)        0.155 ( 1.28%)        0.159 ( 1.32%)        0.629 ( 4.86%)        0.156 ( 1.20%)        0.159 ( 1.23%)
  Setup Matrix Structure                     4        0.236 ( 1.96%)        0.058 ( 0.48%)        0.060 ( 0.50%)        0.240 ( 1.85%)        0.060 ( 0.46%)        0.060 ( 0.46%)

