
*****
***** Welcome to the Xyce(TM) Parallel Electronic Simulator
*****
***** This is version Xyce Release 6.12-opensource
***** Date: Thu Jul 09 23:52:15 EDT 2020


***** Executing netlist RC_transient.cir

***** Reading and parsing netlist...
***** Setting up topology...

***** Device Count Summary ...
       C level 1 (Capacitor)                   51200
       I level 1 (Independent Current Source)  25600
       R level 1 (Resistor)                   152960
       V level 1 (Independent Voltage Source)      1
       ---------------------------------------------
       Total Devices                          229761
***** Setting up matrix structure...
***** Number of Unknowns = 51202
***** Initializing...

***** Beginning DC Operating Point Calculation...

***** Beginning Transient Calculation...

***** Percent complete: 1.02419 %
***** Current system time: Thu Jul  9 23:52:22 2020
***** Estimated time to completion:  5 min., 15 sec.

***** Percent complete: 2.91126 %
***** Current system time: Thu Jul  9 23:52:23 2020
***** Estimated time to completion:  1 min., 29 sec.

***** Percent complete: 4.79833 %
***** Current system time: Thu Jul  9 23:52:23 2020
***** Estimated time to completion: 55 sec.

***** Percent complete: 6.6854 %
***** Current system time: Thu Jul  9 23:52:23 2020
***** Estimated time to completion: 41 sec.

***** Percent complete: 10.4595 %
***** Current system time: Thu Jul  9 23:52:23 2020
***** Estimated time to completion: 27 sec.

***** Percent complete: 18.0078 %
***** Current system time: Thu Jul  9 23:52:24 2020
***** Estimated time to completion: 16 sec.

***** Percent complete: 28.0078 %
***** Current system time: Thu Jul  9 23:52:25 2020
***** Estimated time to completion: 10 sec.

***** Percent complete: 38.0078 %
***** Current system time: Thu Jul  9 23:52:25 2020
***** Estimated time to completion:  7 sec.

***** Percent complete: 48.0078 %
***** Current system time: Thu Jul  9 23:52:26 2020
***** Estimated time to completion:  5 sec.

***** Percent complete: 58.0078 %
***** Current system time: Thu Jul  9 23:52:26 2020
***** Estimated time to completion:  4 sec.

***** Percent complete: 68.0078 %
***** Current system time: Thu Jul  9 23:52:27 2020
***** Estimated time to completion:  3 sec.

***** Percent complete: 78.0078 %
***** Current system time: Thu Jul  9 23:52:28 2020
***** Estimated time to completion:  2 sec.

***** Percent complete: 88.0078 %
***** Current system time: Thu Jul  9 23:52:28 2020
***** Estimated time to completion:  1 sec.

***** Percent complete: 98.0078 %
***** Current system time: Thu Jul  9 23:52:29 2020
***** Estimated time to completion:  0 sec.

***** Problem read in and set up time: 5.41627 seconds
 ***** DCOP time: 0.934602 seconds.  Breakdown follows:
	Number Successful Steps Taken:		1
	Number Failed Steps Attempted:		0
	Number Jacobians Evaluated:		3
	Number Iteration Matrix Factorizations:	0
	Number Linear Solves:			3
	Number Failed Linear Solves:		0
	Number Linear Solver Iterations:	61
	Number Residual Evaluations:		4
	Number Nonlinear Convergence Failures:	0
	Total Residual Load Time:		0.108985 seconds
	Total Jacobian Load Time:		0.0599399 seconds
	Total Linear Solution Time:		0.55534 seconds

 ***** Transient Stepping time: 7.87751 seconds.  Breakdown follows:
	Number Successful Steps Taken:		18
	Number Failed Steps Attempted:		1
	Number Jacobians Evaluated:		24
	Number Iteration Matrix Factorizations:	0
	Number Linear Solves:			24
	Number Failed Linear Solves:		0
	Number Linear Solver Iterations:	675
	Number Residual Evaluations:		43
	Number Nonlinear Convergence Failures:	0
	Total Residual Load Time:		0.656414 seconds
	Total Jacobian Load Time:		0.303391 seconds
	Total Linear Solution Time:		1.55975 seconds


***** Solution Summary *****
	Number Successful Steps Taken:		19
	Number Failed Steps Attempted:		1
	Number Jacobians Evaluated:		27
	Number Iteration Matrix Factorizations:	0
	Number Linear Solves:			27
	Number Failed Linear Solves:		0
	Number Linear Solver Iterations:	736
	Number Residual Evaluations:		47
	Number Nonlinear Convergence Failures:	0
	Total Residual Load Time:		0.765399 seconds
	Total Jacobian Load Time:		0.363331 seconds
	Total Linear Solution Time:		2.11509 seconds


***** Total Simulation Solvers Run Time: 9.38309 seconds
***** Total Elapsed Run Time:            14.2914 seconds
*****
***** End of Xyce(TM) Simulation
*****

Timing summary of processor 0
                 Stats                   Count       CPU Time              Wall Time
---------------------------------------- ----- --------------------- ---------------------
Xyce                                         1       13.876 (100.0%)       14.450 (100.0%)
  Analysis                                   1        9.132 (65.81%)        9.383 (64.94%)
    Transient                                1        8.627 (62.17%)        8.875 (61.42%)
      Nonlinear Solve                       20        3.216 (23.17%)        3.307 (22.89%)
        Residual                            47        0.741 ( 5.34%)        0.766 ( 5.30%)
        Jacobian                            27        0.341 ( 2.46%)        0.363 ( 2.51%)
        Linear Solve                        27        2.072 (14.93%)        2.115 (14.64%)
      Successful DCOP Steps                  1        0.121 ( 0.87%)        0.140 ( 0.97%)
      Successful Step                       18        5.228 (37.68%)        5.309 (36.74%)
      Failed Steps                           1        0.000 (<0.01%)        0.000 (<0.01%)
  Netlist Import                             1        2.654 (19.13%)        2.803 (19.40%)
    Parse Context                            1        0.370 ( 2.66%)        0.396 ( 2.74%)
    Distribute Devices                       1        1.471 (10.60%)        1.543 (10.68%)
    Verify Devices                           1        0.000 (<0.01%)        0.000 (<0.01%)
    Instantiate                              1        0.319 ( 2.30%)        0.342 ( 2.36%)
  Late Initialization                        1        2.052 (14.79%)        2.092 (14.48%)
    Global Indices                           1        1.022 ( 7.36%)        1.048 ( 7.25%)
  Setup Matrix Structure                     1        0.370 ( 2.66%)        0.374 ( 2.59%)


Timing summary of 4 processors
                                                     CPU Time              CPU Time              CPU Time              Wall Time             Wall Time             Wall Time
                 Stats                   Count   Sum (% of System)     Min (% of System)     Max (% of System)     Sum (% of System)     Min (% of System)     Max (% of System)
---------------------------------------- ----- --------------------- --------------------- --------------------- --------------------- --------------------- ---------------------
Xyce                                         4       55.215 (100.0%)       13.692 (24.80%)       13.878 (25.13%)       57.541 (100.0%)       14.362 (24.96%)       14.450 (25.11%)
  Analysis                                   4       36.259 (65.67%)        8.980 (16.26%)        9.132 (16.54%)       37.250 (64.74%)        9.282 (16.13%)        9.383 (16.31%)
    Transient                                4       34.267 (62.06%)        8.494 (15.38%)        8.627 (15.62%)       35.244 (61.25%)        8.789 (15.27%)        8.875 (15.42%)
      Nonlinear Solve                       80       12.422 (22.50%)        2.967 ( 5.37%)        3.216 ( 5.82%)       12.955 (22.51%)        3.154 ( 5.48%)        3.307 ( 5.75%)
        Residual                           188        2.662 ( 4.82%)        0.571 ( 1.03%)        0.741 ( 1.34%)        2.808 ( 4.88%)        0.622 ( 1.08%)        0.766 ( 1.33%)
        Jacobian                           108        1.346 ( 2.44%)        0.321 ( 0.58%)        0.354 ( 0.64%)        1.462 ( 2.54%)        0.363 ( 0.63%)        0.368 ( 0.64%)
        Linear Solve                       108        8.188 (14.83%)        2.024 ( 3.67%)        2.072 ( 3.75%)        8.451 (14.69%)        2.110 ( 3.67%)        2.115 ( 3.68%)
      Successful DCOP Steps                  4        0.527 ( 0.95%)        0.121 ( 0.22%)        0.138 ( 0.25%)        0.561 ( 0.97%)        0.140 ( 0.24%)        0.140 ( 0.24%)
      Successful Step                       72       19.511 (35.34%)        4.695 ( 8.50%)        5.228 ( 9.47%)       19.844 (34.49%)        4.831 ( 8.40%)        5.309 ( 9.23%)
      Failed Steps                           4        0.000 (<0.01%)        0.000 (<0.01%)        0.000 (<0.01%)        0.000 (<0.01%)        0.000 (<0.01%)        0.000 (<0.01%)
  Netlist Import                             4       10.587 (19.17%)        2.610 ( 4.73%)        2.670 ( 4.83%)       11.211 (19.48%)        2.803 ( 4.87%)        2.803 ( 4.87%)
    Parse Context                            4        1.556 ( 2.82%)        0.370 ( 0.67%)        0.396 ( 0.72%)        1.582 ( 2.75%)        0.396 ( 0.69%)        0.396 ( 0.69%)
    Distribute Devices                       4        5.820 (10.54%)        1.422 ( 2.58%)        1.471 ( 2.66%)        6.146 (10.68%)        1.531 ( 2.66%)        1.543 ( 2.68%)
    Verify Devices                           4        0.000 (<0.01%)        0.000 (<0.01%)        0.000 (<0.01%)        0.000 (<0.01%)        0.000 (<0.01%)        0.000 (<0.01%)
    Instantiate                              4        1.715 ( 3.11%)        0.319 ( 0.58%)        0.535 ( 0.97%)        1.820 ( 3.16%)        0.342 ( 0.59%)        0.564 ( 0.98%)
  Late Initialization                        4        8.186 (14.83%)        2.033 ( 3.68%)        2.053 ( 3.72%)        8.379 (14.56%)        2.084 ( 3.62%)        2.102 ( 3.65%)
    Global Indices                           4        4.080 ( 7.39%)        1.008 ( 1.83%)        1.029 ( 1.86%)        4.210 ( 7.32%)        1.042 ( 1.81%)        1.064 ( 1.85%)
  Setup Matrix Structure                     4        1.483 ( 2.69%)        0.370 ( 0.67%)        0.373 ( 0.67%)        1.494 ( 2.60%)        0.373 ( 0.65%)        0.374 ( 0.65%)

